/*--------------------------------*- C++ -*----------------------------------*\
| =========                 |                                                 |
| \\      /  F ield         | OpenFOAM: The Open Source CFD Toolbox           |
|  \\    /   O peration     | Version:  v2012                                 |
|   \\  /    A nd           | Website:  www.openfoam.com                      |
|    \\/     M anipulation  |                                                 |
\*---------------------------------------------------------------------------*/
FoamFile
{
    version     2.0;
    format      ascii;
    class       volScalarField;
    object      k;
}
// * * * * * * * * * * * * * * * * * * * * * * * * * * * * * * * * * * * * * //

//#include        "include/initialConditions"

dimensions      [0 2 -2 0 0 0 0];

internalField   uniform 0.1;

boundaryField
{
    #includeEtc "caseDicts/setConstraintTypes"

    //- Define inlet conditions
    //#include "include/fixedInlet"

    outlet
    {
        type zeroGradient;
    }

    inlet
    {
        type turbulentIntensityKineticEnergyInlet;
        intensity 0.05;
        value uniform 0.1;
    }

    walls
    {
        type kqRWallFunction;
        value uniform 0.1;
    }

    //#include "include/frontBackUpperPatches"
}



// ************************************************************************* //
