/*--------------------------------*- C++ -*----------------------------------*\
| =========                 |                                                 |
| \\      /  F ield         | OpenFOAM: The Open Source CFD Toolbox           |
|  \\    /   O peration     | Version:  2012                                  |
|   \\  /    A nd           | Website:  www.openfoam.com                      |
|    \\/     M anipulation  |                                                 |
\*---------------------------------------------------------------------------*/
FoamFile
{
    version     2.0;
    format      ascii;
    class       featureEdgeMesh;
    location    "constant/triSurface";
    object      cross.eMesh;
}
// * * * * * * * * * * * * * * * * * * * * * * * * * * * * * * * * * * * * * //


// points:

272
(
(-0.02500000037 -0.02500000037 0)
(0.02500000037 0.02500000037 0)
(-0.02500000037 0.02500000037 0)
(0.02500000037 -0.02500000037 0)
(-0.02500000037 -0.02500000037 0.1000000015)
(0.02500000037 0.02500000037 0.1000000015)
(-0.02500000037 0.02500000037 0.1000000015)
(0.02500000037 -0.02500000037 0.1000000015)
(0.06057110056 -0.3953869939 0.1000000015)
(0.06057110056 -0.3953869939 0)
(0.1002610028 -0.3872309923 0)
(0.1002610028 -0.3872309923 0.1000000015)
(0.400000006 0 0)
(0.400000006 0 0.1000000015)
(0.1389220059 -0.3751010001 0)
(0.3979479969 0.04046729952 0.1000000015)
(0.3979479969 0.04046729952 0)
(0.1389220059 -0.3751010001 0.1000000015)
(0.1761579961 -0.3591220081 0)
(0.3918119967 0.08051940054 0)
(0.1761579961 -0.3591220081 0.1000000015)
(0.3918119967 0.08051940054 0.1000000015)
(0.2115859985 -0.3394579887 0)
(0.2115859985 -0.3394579887 0.1000000015)
(0.3816559911 0.1197450012 0.1000000015)
(0.3816559911 0.1197450012 0)
(0.2448419929 -0.3163099885 0.1000000015)
(0.2448419929 -0.3163099885 0)
(0.3675830066 0.1577419937 0.1000000015)
(0.3675830066 0.1577419937 0)
(0.2755869925 -0.2899169922 0)
(0.3497389853 0.1941210032 0)
(0.2755869925 -0.2899169922 0.1000000015)
(0.3035030067 -0.2605490088 0)
(0.3497389853 0.1941210032 0.1000000015)
(0.3035030067 -0.2605490088 0.1000000015)
(0.328305006 0.2285069972 0)
(0.328305006 -0.2285069972 0)
(0.328305006 0.2285069972 0.1000000015)
(0.328305006 -0.2285069972 0.1000000015)
(0.3497389853 -0.1941210032 0)
(0.3035030067 0.2605490088 0.1000000015)
(0.3035030067 0.2605490088 0)
(0.3497389853 -0.1941210032 0.1000000015)
(0.2755869925 0.2899169922 0)
(0.3675830066 -0.1577419937 0.1000000015)
(0.2755869925 0.2899169922 0.1000000015)
(0.3675830066 -0.1577419937 0)
(0.2448419929 0.3163099885 0)
(0.3816559911 -0.1197450012 0.1000000015)
(0.3816559911 -0.1197450012 0)
(0.2448419929 0.3163099885 0.1000000015)
(0.3918119967 -0.08051940054 0)
(0.2115859985 0.3394579887 0)
(0.3918119967 -0.08051940054 0.1000000015)
(0.2115859985 0.3394579887 0.1000000015)
(0.3979479969 -0.04046729952 0)
(0.3979479969 -0.04046729952 0.1000000015)
(0.1761579961 0.3591220081 0.1000000015)
(0.1761579961 0.3591220081 0)
(0.1389220059 0.3751010001 0.1000000015)
(0.1389220059 0.3751010001 0)
(0.1002610028 0.3872309923 0.1000000015)
(0.1002610028 0.3872309923 0)
(0.06057110056 0.3953869939 0)
(0.06057110056 0.3953869939 0.1000000015)
(0.02025970072 0.3994869888 0.1000000015)
(0.02025970072 0.3994869888 0)
(-0.02025970072 0.3994869888 0.1000000015)
(-0.02025970072 0.3994869888 0)
(-0.06057110056 0.3953869939 0.1000000015)
(-0.06057110056 0.3953869939 0)
(-0.1002610028 0.3872309923 0.1000000015)
(-0.1002610028 0.3872309923 0)
(-0.1389220059 0.3751010001 0.1000000015)
(-0.1389220059 0.3751010001 0)
(-0.1761579961 0.3591220081 0.1000000015)
(-0.1761579961 0.3591220081 0)
(-0.2115859985 0.3394579887 0)
(-0.2115859985 0.3394579887 0.1000000015)
(-0.2448419929 0.3163099885 0)
(-0.2448419929 0.3163099885 0.1000000015)
(-0.2755869925 0.2899169922 0)
(-0.2755869925 0.2899169922 0.1000000015)
(-0.3035030067 0.2605490088 0)
(-0.3035030067 0.2605490088 0.1000000015)
(-0.328305006 0.2285069972 0)
(-0.328305006 0.2285069972 0.1000000015)
(-0.3497389853 0.1941210032 0.1000000015)
(-0.3497389853 0.1941210032 0)
(-0.3675830066 0.1577419937 0.1000000015)
(-0.3675830066 0.1577419937 0)
(-0.3816559911 0.1197450012 0)
(-0.3816559911 0.1197450012 0.1000000015)
(-0.3918119967 0.08051940054 0)
(-0.3918119967 0.08051940054 0.1000000015)
(-0.3979479969 0.04046729952 0)
(-0.3979479969 0.04046729952 0.1000000015)
(-0.400000006 0 0)
(-0.400000006 0 0.1000000015)
(-0.3979479969 -0.04046729952 0.1000000015)
(-0.3979479969 -0.04046729952 0)
(-0.3918119967 -0.08051940054 0)
(-0.3918119967 -0.08051940054 0.1000000015)
(-0.3816559911 -0.1197450012 0.1000000015)
(-0.3816559911 -0.1197450012 0)
(-0.3675830066 -0.1577419937 0.1000000015)
(-0.3675830066 -0.1577419937 0)
(-0.3497389853 -0.1941210032 0)
(-0.3497389853 -0.1941210032 0.1000000015)
(-0.328305006 -0.2285069972 0)
(-0.328305006 -0.2285069972 0.1000000015)
(-0.3035030067 -0.2605490088 0.1000000015)
(-0.3035030067 -0.2605490088 0)
(-0.2755869925 -0.2899169922 0)
(-0.2755869925 -0.2899169922 0.1000000015)
(-0.2448419929 -0.3163099885 0.1000000015)
(-0.2448419929 -0.3163099885 0)
(-0.2115859985 -0.3394579887 0.1000000015)
(-0.2115859985 -0.3394579887 0)
(-0.1761579961 -0.3591220081 0)
(-0.1761579961 -0.3591220081 0.1000000015)
(-0.1389220059 -0.3751010001 0)
(-0.1389220059 -0.3751010001 0.1000000015)
(-0.1002610028 -0.3872309923 0)
(-0.1002610028 -0.3872309923 0.1000000015)
(-0.06057110056 -0.3953869939 0)
(-0.06057110056 -0.3953869939 0.1000000015)
(-0.02025970072 -0.3994869888 0)
(-0.02025970072 -0.3994869888 0.1000000015)
(0.02025970072 -0.3994869888 0.1000000015)
(0.02025970072 -0.3994869888 0)
(0.02500000037 0.3000000119 0)
(-0.02500000037 -0.3000000119 0)
(-0.3000000119 0.02500000037 0)
(0.3000000119 0.02500000037 0)
(0.02500000037 -0.3000000119 0)
(0.3000000119 -0.02500000037 0)
(-0.02500000037 0.3000000119 0)
(-0.3000000119 -0.02500000037 0)
(0.02500000037 0.3000000119 0.1000000015)
(-0.02500000037 -0.3000000119 0.1000000015)
(-0.3000000119 0.02500000037 0.1000000015)
(0.3000000119 0.02500000037 0.1000000015)
(0.02500000037 -0.3000000119 0.1000000015)
(0.3000000119 -0.02500000037 0.1000000015)
(-0.02500000037 0.3000000119 0.1000000015)
(-0.3000000119 -0.02500000037 0.1000000015)
(0.08051940054 -0.3918119967 0)
(0.04046729952 -0.3979479969 0.1000000015)
(0.08051940054 -0.3918119967 0.1000000015)
(0.1197450012 -0.3816559911 0)
(0.3994869888 0.02025970072 0)
(0.3994869888 0.02025970072 0.1000000015)
(0.1197450012 -0.3816559911 0.1000000015)
(0.1577419937 -0.3675830066 0)
(0.3953869939 0.06057110056 0)
(0.3953869939 0.06057110056 0.1000000015)
(0.1577419937 -0.3675830066 0.1000000015)
(0.1941210032 -0.3497389853 0)
(0.3872309923 0.1002610028 0)
(0.1941210032 -0.3497389853 0.1000000015)
(0.3872309923 0.1002610028 0.1000000015)
(0.2285069972 -0.328305006 0)
(0.2285069972 -0.328305006 0.1000000015)
(0.3751010001 0.1389220059 0)
(0.3751010001 0.1389220059 0.1000000015)
(0.2605490088 -0.3035030067 0)
(0.2605490088 -0.3035030067 0.1000000015)
(0.3591220081 0.1761579961 0)
(0.2899169922 -0.2755869925 0)
(0.3591220081 0.1761579961 0.1000000015)
(0.2899169922 -0.2755869925 0.1000000015)
(0.3163099885 -0.2448419929 0)
(0.3394579887 0.2115859985 0)
(0.3394579887 0.2115859985 0.1000000015)
(0.3163099885 -0.2448419929 0.1000000015)
(0.3394579887 -0.2115859985 0)
(0.3163099885 0.2448419929 0.1000000015)
(0.3163099885 0.2448419929 0)
(0.3394579887 -0.2115859985 0.1000000015)
(0.3591220081 -0.1761579961 0.1000000015)
(0.2899169922 0.2755869925 0.1000000015)
(0.2899169922 0.2755869925 0)
(0.3591220081 -0.1761579961 0)
(0.3751010001 -0.1389220059 0)
(0.3751010001 -0.1389220059 0.1000000015)
(0.2605490088 0.3035030067 0.1000000015)
(0.2605490088 0.3035030067 0)
(0.3872309923 -0.1002610028 0)
(0.3872309923 -0.1002610028 0.1000000015)
(0.2285069972 0.328305006 0.1000000015)
(0.2285069972 0.328305006 0)
(0.3953869939 -0.06057110056 0)
(0.3953869939 -0.06057110056 0.1000000015)
(0.1941210032 0.3497389853 0.1000000015)
(0.1941210032 0.3497389853 0)
(0.3994869888 -0.02025970072 0.1000000015)
(0.3994869888 -0.02025970072 0)
(0.1577419937 0.3675830066 0.1000000015)
(0.1577419937 0.3675830066 0)
(0.1197450012 0.3816559911 0)
(0.1197450012 0.3816559911 0.1000000015)
(0.08051940054 0.3918119967 0)
(0.08051940054 0.3918119967 0.1000000015)
(0.04046729952 0.3979479969 0)
(0.04046729952 0.3979479969 0.1000000015)
(0 0.400000006 0)
(0 0.400000006 0.1000000015)
(-0.04046729952 0.3979479969 0)
(-0.04046729952 0.3979479969 0.1000000015)
(-0.08051940054 0.3918119967 0)
(-0.08051940054 0.3918119967 0.1000000015)
(-0.1197450012 0.3816559911 0)
(-0.1197450012 0.3816559911 0.1000000015)
(-0.1577419937 0.3675830066 0)
(-0.1577419937 0.3675830066 0.1000000015)
(-0.1941210032 0.3497389853 0)
(-0.1941210032 0.3497389853 0.1000000015)
(-0.2285069972 0.328305006 0.1000000015)
(-0.2285069972 0.328305006 0)
(-0.2605490088 0.3035030067 0.1000000015)
(-0.2605490088 0.3035030067 0)
(-0.2899169922 0.2755869925 0)
(-0.2899169922 0.2755869925 0.1000000015)
(-0.3163099885 0.2448419929 0.1000000015)
(-0.3163099885 0.2448419929 0)
(-0.3394579887 0.2115859985 0)
(-0.3394579887 0.2115859985 0.1000000015)
(-0.3591220081 0.1761579961 0)
(-0.3591220081 0.1761579961 0.1000000015)
(-0.3751010001 0.1389220059 0)
(-0.3751010001 0.1389220059 0.1000000015)
(-0.3872309923 0.1002610028 0)
(-0.3872309923 0.1002610028 0.1000000015)
(-0.3953869939 0.06057110056 0)
(-0.3953869939 0.06057110056 0.1000000015)
(-0.3994869888 0.02025970072 0)
(-0.3994869888 0.02025970072 0.1000000015)
(-0.3994869888 -0.02025970072 0)
(-0.3994869888 -0.02025970072 0.1000000015)
(-0.3953869939 -0.06057110056 0)
(-0.3953869939 -0.06057110056 0.1000000015)
(-0.3872309923 -0.1002610028 0)
(-0.3872309923 -0.1002610028 0.1000000015)
(-0.3751010001 -0.1389220059 0)
(-0.3751010001 -0.1389220059 0.1000000015)
(-0.3591220081 -0.1761579961 0)
(-0.3591220081 -0.1761579961 0.1000000015)
(-0.3394579887 -0.2115859985 0)
(-0.3394579887 -0.2115859985 0.1000000015)
(-0.3163099885 -0.2448419929 0)
(-0.3163099885 -0.2448419929 0.1000000015)
(-0.2899169922 -0.2755869925 0)
(-0.2899169922 -0.2755869925 0.1000000015)
(-0.2605490088 -0.3035030067 0)
(-0.2605490088 -0.3035030067 0.1000000015)
(-0.2285069972 -0.328305006 0)
(-0.2285069972 -0.328305006 0.1000000015)
(-0.1941210032 -0.3497389853 0)
(-0.1941210032 -0.3497389853 0.1000000015)
(-0.1577419937 -0.3675830066 0)
(-0.1577419937 -0.3675830066 0.1000000015)
(-0.1197450012 -0.3816559911 0)
(-0.1197450012 -0.3816559911 0.1000000015)
(-0.08051940054 -0.3918119967 0)
(-0.08051940054 -0.3918119967 0.1000000015)
(-0.04046729952 -0.3979479969 0.1000000015)
(-0.04046729952 -0.3979479969 0)
(0 -0.400000006 0)
(0 -0.400000006 0.1000000015)
(0.04046729952 -0.3979479969 0)
)


// edges:

408
(
(0 133)
(135 1)
(1 132)
(2 134)
(136 3)
(3 137)
(138 2)
(137 135)
(132 138)
(133 136)
(134 139)
(139 0)
(141 4)
(5 143)
(140 5)
(142 6)
(7 144)
(145 7)
(6 146)
(143 145)
(146 140)
(144 141)
(147 142)
(4 147)
(7 3)
(0 4)
(5 1)
(2 6)
(136 144)
(145 137)
(133 141)
(143 135)
(139 147)
(140 132)
(134 142)
(146 138)
(9 148)
(8 149)
(148 10)
(150 8)
(10 151)
(11 150)
(12 152)
(153 13)
(151 14)
(154 11)
(152 16)
(14 155)
(15 153)
(17 154)
(16 156)
(155 18)
(156 19)
(157 15)
(158 17)
(20 158)
(21 157)
(18 159)
(159 22)
(19 160)
(161 20)
(162 21)
(23 161)
(160 25)
(24 162)
(22 163)
(164 23)
(25 165)
(166 24)
(163 27)
(27 167)
(26 164)
(165 29)
(28 166)
(167 30)
(168 26)
(29 169)
(169 31)
(30 170)
(171 28)
(32 168)
(170 33)
(34 171)
(172 32)
(33 173)
(31 174)
(35 172)
(174 36)
(175 34)
(173 37)
(176 35)
(38 175)
(37 177)
(39 176)
(178 38)
(36 179)
(180 39)
(177 40)
(41 178)
(179 42)
(43 180)
(181 43)
(182 41)
(42 183)
(40 184)
(183 44)
(45 181)
(46 182)
(184 47)
(47 185)
(186 45)
(187 46)
(44 188)
(188 48)
(49 186)
(185 50)
(50 189)
(51 187)
(190 49)
(189 52)
(191 51)
(48 192)
(192 53)
(54 190)
(52 193)
(55 191)
(194 54)
(193 56)
(195 55)
(53 196)
(57 194)
(197 57)
(56 198)
(58 195)
(198 12)
(196 59)
(13 197)
(199 58)
(59 200)
(200 61)
(60 199)
(61 201)
(202 60)
(201 63)
(62 202)
(63 203)
(203 64)
(204 62)
(65 204)
(64 205)
(206 65)
(205 67)
(66 206)
(67 207)
(208 66)
(207 69)
(68 208)
(69 209)
(210 68)
(209 71)
(71 211)
(70 210)
(212 70)
(211 73)
(73 213)
(72 212)
(214 72)
(74 214)
(213 75)
(75 215)
(216 74)
(76 216)
(215 77)
(77 217)
(218 76)
(217 78)
(79 218)
(219 79)
(78 220)
(220 80)
(81 219)
(221 81)
(80 222)
(222 82)
(83 221)
(82 223)
(224 83)
(223 84)
(85 224)
(225 85)
(84 226)
(226 86)
(87 225)
(86 227)
(228 87)
(88 228)
(227 89)
(89 229)
(230 88)
(90 230)
(229 91)
(91 231)
(232 90)
(231 92)
(93 232)
(92 233)
(233 94)
(234 93)
(95 234)
(94 235)
(235 96)
(236 95)
(97 236)
(96 237)
(237 98)
(238 97)
(98 239)
(99 238)
(240 99)
(100 240)
(239 101)
(101 241)
(242 100)
(241 102)
(103 242)
(102 243)
(244 103)
(104 244)
(243 105)
(105 245)
(246 104)
(106 246)
(245 107)
(107 247)
(248 106)
(247 108)
(109 248)
(108 249)
(250 109)
(249 110)
(111 250)
(110 251)
(252 111)
(113 253)
(112 252)
(251 113)
(253 114)
(254 112)
(114 255)
(115 254)
(256 115)
(255 117)
(116 256)
(117 257)
(258 116)
(257 119)
(119 259)
(118 258)
(259 120)
(260 118)
(120 261)
(121 260)
(261 122)
(262 121)
(122 263)
(123 262)
(263 124)
(264 123)
(125 264)
(124 265)
(266 125)
(265 126)
(127 266)
(267 127)
(126 268)
(268 128)
(129 267)
(128 269)
(270 129)
(269 131)
(131 271)
(130 270)
(271 9)
(149 130)
(114 113)
(53 48)
(86 84)
(42 36)
(48 44)
(30 27)
(44 42)
(84 82)
(33 30)
(37 33)
(40 37)
(47 40)
(50 47)
(77 75)
(78 77)
(80 78)
(82 80)
(75 73)
(52 50)
(73 71)
(117 114)
(119 117)
(56 52)
(120 119)
(122 120)
(124 122)
(126 124)
(128 126)
(71 69)
(101 98)
(102 101)
(12 56)
(105 102)
(107 105)
(108 107)
(110 108)
(113 110)
(69 67)
(16 12)
(67 64)
(131 128)
(9 131)
(10 9)
(19 16)
(96 94)
(98 96)
(94 92)
(64 63)
(25 19)
(14 10)
(92 91)
(63 61)
(18 14)
(91 89)
(29 25)
(61 59)
(22 18)
(31 29)
(89 86)
(59 53)
(27 22)
(36 31)
(112 115)
(51 55)
(85 87)
(38 41)
(46 51)
(26 32)
(41 46)
(83 85)
(32 35)
(35 39)
(39 43)
(43 45)
(45 49)
(74 76)
(76 79)
(79 81)
(81 83)
(72 74)
(49 54)
(70 72)
(115 116)
(116 118)
(54 57)
(118 121)
(121 123)
(123 125)
(125 127)
(127 129)
(68 70)
(99 100)
(100 103)
(57 13)
(103 104)
(104 106)
(106 109)
(109 111)
(111 112)
(66 68)
(13 15)
(65 66)
(129 130)
(130 8)
(8 11)
(15 21)
(95 97)
(97 99)
(93 95)
(62 65)
(21 24)
(11 17)
(90 93)
(60 62)
(17 20)
(88 90)
(24 28)
(58 60)
(20 23)
(28 34)
(87 88)
(55 58)
(23 26)
(34 38)
)

// * * * * * * * * * * * * * * * * * * * * * * * * * * * * * * * * * * * * * //


// ************************************************************************* //
