/*--------------------------------*- C++ -*----------------------------------*\
| =========                 |                                                 |
| \\      /  F ield         | OpenFOAM: The Open Source CFD Toolbox           |
|  \\    /   O peration     | Version:  v1912                                 |
|   \\  /    A nd           | Website:  www.openfoam.com                      |
|    \\/     M anipulation  |                                                 |
\*---------------------------------------------------------------------------*/
FoamFile
{
    version     2.0;
    format      ascii;
    class       featureEdgeMesh;
    location    "constant/triSurface";
    object      Tornado_humidifier.eMesh;
}
// * * * * * * * * * * * * * * * * * * * * * * * * * * * * * * * * * * * * * //


// points:

678
(
(38.44240952 -11.05356979 0)
(40 -9.797174397e-15 0)
(40 -9.797174397e-15 170)
(38.44374847 11.04889011 0)
(33.89609909 21.23804092 0)
(26.7109108 29.77461052 0)
(17.44728088 35.99433899 0)
(6.82602787 39.41326141 0)
(-4.326369762 39.7653389 0)
(-6.8020401 39.4174118 0)
(-40 -1.286498035e-14 170)
(-39.61072159 -5.566924095 0)
(4.326369762 -39.7653389 0)
(6.8020401 -39.4174118 0)
(17.42975044 -36.00283051 0)
(26.70002937 -29.78436089 0)
(33.89093018 -21.24629021 0)
(5.253289223 16.16795921 16)
(13.75329018 9.992348671 16)
(-13.75329018 9.992348671 16)
(5.253289223 -16.16795921 16)
(-13.75329018 -9.992348671 16)
(13.75329018 -9.992348671 16)
(-5.253289223 -16.16795921 16)
(-5.253289223 16.16795921 16)
(-17 -5.83142272e-14 16)
(17 -4.163798822e-15 16)
(8 0 170)
(-8 -9.678423766e-15 170)
(-4.050973892 37.80580139 0)
(-1.977689981 38.33818817 0)
(-4.184751987 38.75767899 0)
(-2.094494104 39.31835938 0)
(0.1568091959 38.49898911 0)
(2.286454916 38.28321838 0)
(4.3453269 37.6975708 0)
(2.216598034 39.29637909 0)
(0.06203344092 39.49983978 0)
(6.269697189 36.76015854 0)
(8 35.5 0)
(8 36.5 0)
(6.249379158 37.77235031 0)
(4.301030159 38.71440887 0)
(-8 -36.5 0)
(-6.249379158 -37.77235031 0)
(-8 -35.5 0)
(-4.301030159 -38.71440887 0)
(-4.3453269 -37.6975708 0)
(-6.269697189 -36.76015854 0)
(-2.216598034 -39.29637909 0)
(-0.06203344092 -39.49983978 0)
(-2.286454916 -38.28321838 0)
(-0.1568091959 -38.49898911 0)
(1.977689981 -38.33818817 0)
(2.094494104 -39.31835938 0)
(4.184751987 -38.75767899 0)
(4.050973892 -37.80580139 0)
(-4.326369762 39.7653389 10)
(-6.8020401 39.4174118 10)
(-5.153951168 39.66656876 10)
(-5.97929287 39.55057907 10)
(4.326369762 -39.7653389 10)
(6.8020401 -39.4174118 10)
(5.153951168 -39.66656876 10)
(5.97929287 -39.55057907 10)
(5.153951168 -39.66656876 0)
(5.97929287 -39.55057907 0)
(-5.153951168 39.66656876 0)
(-5.97929287 39.55057907 0)
(6.545144081 -37.58950043 0)
(7.04800415 -37.25065994 0)
(7.533358097 -36.8871994 0)
(6.964851856 -36.30923843 0)
(6.416024208 -36.67076111 0)
(7.493358135 -35.91859818 0)
(8 -36.5 0)
(8 -35.5 0)
(-8 35.5 0)
(-7.493358135 35.91859818 0)
(-8 36.5 0)
(-6.964851856 36.30923843 0)
(-7.533358097 36.8871994 0)
(-6.416024208 36.67076111 0)
(-6.545144081 37.58950043 0)
(-7.04800415 37.25065994 0)
(4.999039173 -38.42556 0)
(5.787209034 -38.0354805 0)
(-5.787209034 38.0354805 0)
(-4.999039173 38.42556 0)
(4.865910053 -37.48460007 0)
(5.655624866 -37.10559845 0)
(-5.655624866 37.10559845 0)
(-4.865910053 37.48460007 0)
(38.63703156 -10.35276031 170)
(37.87720871 -12.85758018 170)
(39.12134171 -8.337897301 0)
(39.60868835 -5.581387997 0)
(39.23141098 -7.803613186 170)
(39.90205002 -2.797544003 0)
(39.65779114 -5.221047878 170)
(39.91436005 -2.616125107 170)
(39.90214157 2.796329975 0)
(39.91436005 2.616125107 170)
(39.65779114 5.221047878 170)
(39.60903168 5.578977108 0)
(39.23141098 7.803613186 170)
(39.12210083 8.334324837 0)
(38.63703156 10.35276031 170)
(37.87720871 12.85758018 170)
(37.57728958 13.70940018 0)
(36.95518112 15.30733967 170)
(36.52695084 16.30282021 0)
(35.87490845 17.6915493 170)
(35.29787827 18.81646919 0)
(34.64102173 20 170)
(33.25878143 22.22281075 170)
(32.32846069 23.5557003 0)
(31.73413086 24.35046005 170)
(30.60261917 25.75808907 0)
(30.07358932 26.3738308 170)
(28.72705078 27.83444977 0)
(28.28426933 28.28426933 170)
(26.3738308 30.07358932 170)
(24.56406975 31.56908035 0)
(24.35046005 31.73413086 170)
(22.2970295 33.2090683 0)
(22.22281075 33.25878143 170)
(20 34.64102173 170)
(19.92089081 34.68656921 0)
(17.6915493 35.87490845 170)
(15.30733967 36.95518112 170)
(14.88829041 37.12599182 0)
(12.85758018 37.87720871 170)
(12.2564497 38.0759697 0)
(10.35276031 38.63703156 170)
(9.564640045 38.83964157 0)
(7.803613186 39.23141098 170)
(5.221047878 39.65779114 170)
(4.05401516 39.79402924 0)
(2.616125107 39.91436005 170)
(1.262166023 39.98007965 0)
(-1.535859942 39.97050095 0)
(-3.307783938e-14 40 170)
(-9.423303604 38.8741684 0)
(-2.616125107 39.91436005 170)
(-5.221047878 39.65779114 170)
(-7.803613186 39.23141098 170)
(-10.35276031 38.63703156 170)
(-12.00236034 38.15681839 0)
(-14.52766037 37.26858139 0)
(-12.85758018 37.87720871 170)
(-16.98789978 36.21340942 0)
(-15.30733967 36.95518112 170)
(-19.37204933 34.99605179 0)
(-17.6915493 35.87490845 170)
(-21.66942978 33.62194824 0)
(-20 34.64102173 170)
(-23.86977005 32.09725952 0)
(-22.22281075 33.25878143 170)
(-25.96319008 30.42881966 0)
(-24.35046005 31.73413086 170)
(-27.94033051 28.62408066 0)
(-26.3738308 30.07358932 170)
(-29.79232025 26.69115067 0)
(-28.28426933 28.28426933 170)
(-31.51088905 24.63866997 0)
(-30.07358932 26.3738308 170)
(-33.08832169 22.47583961 0)
(-31.73413086 24.35046005 170)
(-34.51755142 20.2123394 0)
(-33.25878143 22.22281075 170)
(-35.79219055 17.8583107 0)
(-34.64102173 20 170)
(-36.9065094 15.42430019 0)
(-35.87490845 17.6915493 170)
(-37.85554886 12.92121029 0)
(-36.95518112 15.30733967 170)
(-38.63502884 10.36025047 0)
(-37.87720871 12.85758018 170)
(-38.63703156 10.35276031 170)
(-39.24147034 7.752880096 0)
(-39.23141098 7.803613186 170)
(-39.67214966 5.110789776 0)
(-39.65779114 5.221047878 170)
(-39.92515945 2.445808887 0)
(-39.91436005 2.616125107 170)
(-39.99934006 -0.2301263064 0)
(-39.91436005 -2.616125107 170)
(-39.89437103 -2.905030966 0)
(-39.65779114 -5.221047878 170)
(-39.23141098 -7.803613186 170)
(-39.14966965 -8.203884125 0)
(-38.63703156 -10.35276031 170)
(-38.51325989 -10.80410004 0)
(-37.87720871 -12.85758018 170)
(-37.70436859 -13.35593033 0)
(-36.95518112 -15.30733967 170)
(-36.72660065 -15.84792995 0)
(-35.87490845 -17.6915493 170)
(-35.58433914 -18.26896095 0)
(-34.64102173 -20 170)
(-34.28269958 -20.60816002 0)
(-33.25878143 -22.22281075 170)
(-32.82751846 -22.85507011 0)
(-31.73413086 -24.35046005 170)
(-31.22529984 -24.9996109 0)
(-30.07358932 -26.3738308 170)
(-29.48324013 -27.03218079 0)
(-28.28426933 -28.28426933 170)
(-27.60911942 -28.94367027 0)
(-26.3738308 -30.07358932 170)
(-25.61134911 -30.72554016 0)
(-24.35046005 -31.73413086 170)
(-23.49887085 -32.36978912 0)
(-21.28113937 -33.86906052 0)
(-22.22281075 -33.25878143 170)
(-18.96809959 -35.21662903 0)
(-20 -34.64102173 170)
(-16.57010078 -36.40647888 0)
(-17.6915493 -35.87490845 170)
(-14.0978899 -37.4332695 0)
(-15.30733967 -36.95518112 170)
(-11.56252956 -38.29240036 0)
(-12.85758018 -37.87720871 170)
(-8.975388527 -38.98003006 0)
(-10.35276031 -38.63703156 170)
(-6.34804821 -39.4930687 0)
(-7.803613186 -39.23141098 170)
(-3.692275047 -39.82921982 0)
(-5.221047878 -39.65779114 170)
(-1.019965053 -39.98699188 0)
(-2.616125107 -39.91436005 170)
(1.656913042 -39.96567154 0)
(-7.840214887e-14 -40 170)
(9.542182922 -38.84516144 0)
(2.616125107 -39.91436005 170)
(5.221047878 -39.65779114 170)
(7.803613186 -39.23141098 170)
(10.35276031 -38.63703156 170)
(12.23558998 -38.08267975 0)
(12.85758018 -37.87720871 170)
(14.86907959 -37.13367844 0)
(15.30733967 -36.95518112 170)
(19.90505981 -34.69565964 0)
(17.6915493 -35.87490845 170)
(22.28288078 -33.21857071 0)
(20 -34.64102173 170)
(22.22281075 -33.25878143 170)
(24.55158043 -31.57879066 0)
(24.35046005 -31.73413086 170)
(26.3738308 -30.07358932 170)
(28.71772957 -27.84407043 0)
(28.28426933 -28.28426933 170)
(30.59477997 -25.76741028 0)
(30.07358932 -26.3738308 170)
(32.3219986 -23.5645504 0)
(31.73413086 -24.35046005 170)
(33.25878143 -22.22281075 170)
(35.29388046 -18.82398033 0)
(34.64102173 -20 170)
(36.52397156 -16.3094902 0)
(35.87490845 -17.6915493 170)
(37.57519913 -13.71510983 0)
(36.95518112 -15.30733967 170)
(8.055767059 14.97012043 16)
(9.36524868 14.18774986 16)
(15.31647015 7.376023769 16)
(15.91598988 5.973371983 16)
(14.59362984 8.719287872 16)
(-14.59362984 8.719287872 16)
(-12.80220985 11.18496037 16)
(-11.74806976 -12.28750992 16)
(-12.80220985 -11.18496037 16)
(-10.59932995 -13.2911396 16)
(12.80220985 11.18496037 16)
(11.74806976 12.28750992 16)
(9.36524868 -14.18774986 16)
(8.055767059 -14.97012043 16)
(10.59932995 -13.2911396 16)
(11.74806976 -12.28750992 16)
(10.59932995 13.2911396 16)
(-9.36524868 -14.18774986 16)
(-8.055767059 -14.97012043 16)
(-11.74806976 12.28750992 16)
(-10.59932995 13.2911396 16)
(12.80220985 -11.18496037 16)
(-14.59362984 -8.719287872 16)
(-15.31647015 -7.376023769 16)
(-15.91598988 -5.973371983 16)
(-9.36524868 14.18774986 16)
(-8.055767059 14.97012043 16)
(-6.681426048 -15.63197041 16)
(-3.782855988 -16.57377052 16)
(14.59362984 -8.719287872 16)
(15.31647015 -7.376023769 16)
(-16.38736916 -4.522625923 16)
(-16.72680092 -3.035466909 16)
(-6.681426048 15.63197041 16)
(-2.281965971 -16.84614944 16)
(-0.7627021074 -16.98287964 16)
(-3.782855988 16.57377052 16)
(-2.281965971 16.84614944 16)
(-16.93156052 -1.523867965 16)
(-16.93156052 1.523867965 16)
(-16.38736916 4.522625923 16)
(-15.91598988 5.973371983 16)
(15.91598988 -5.973371983 16)
(16.38736916 -4.522625923 16)
(16.72680092 -3.035466909 16)
(16.93156052 -1.523867965 16)
(-0.7627021074 16.98287964 16)
(0.7627021074 16.98287964 16)
(16.93156052 1.523867965 16)
(-16.72680092 3.035466909 16)
(0.7627021074 -16.98287964 16)
(2.281965971 -16.84614944 16)
(3.782855988 -16.57377052 16)
(2.281965971 16.84614944 16)
(3.782855988 16.57377052 16)
(16.72680092 3.035466909 16)
(16.38736916 4.522625923 16)
(6.681426048 -15.63197041 16)
(-15.31647015 7.376023769 16)
(6.681426048 15.63197041 16)
(5.528501034 -5.782359123 170)
(6.024571896 -5.263510227 170)
(4.9879179 -6.254652023 170)
(6.472136021 -4.702281952 170)
(-6.867589951 -4.103194237 170)
(-6.472136021 -4.702281952 170)
(-7.207750797 -3.471070051 170)
(6.867589951 -4.103194237 170)
(-6.024571896 -5.263510227 170)
(7.207750797 -3.471070051 170)
(-5.528501034 -5.782359123 170)
(-7.489879131 -2.810998917 170)
(4.9879179 6.254652023 170)
(4.407176018 6.676586151 170)
(3.790949106 7.044764042 170)
(3.144200087 7.356222153 170)
(2.472136021 7.608451843 170)
(3.144200087 -7.356222153 170)
(3.790949106 -7.044764042 170)
(2.472136021 -7.608451843 170)
(4.407176018 -6.676586151 170)
(7.489879131 -2.810998917 170)
(7.711702824 -2.128294945 170)
(1.780166984 7.799423218 170)
(1.07386601 7.927598 170)
(-7.871437073 -1.428454995 170)
(-7.711702824 -2.128294945 170)
(-7.967793941 -0.7171145082 170)
(7.871437073 -1.428454995 170)
(7.967793941 -0.7171145082 170)
(1.07386601 -7.927598 170)
(1.780166984 -7.799423218 170)
(0.3589186072 -7.99194479 170)
(0.3589186072 7.99194479 170)
(-0.3589186072 7.99194479 170)
(-1.07386601 7.927598 170)
(-4.9879179 -6.254652023 170)
(-7.967793941 0.7171145082 170)
(-7.871437073 1.428454995 170)
(-0.3589186072 -7.99194479 170)
(-1.07386601 -7.927598 170)
(7.967793941 0.7171145082 170)
(7.871437073 1.428454995 170)
(-1.780166984 7.799423218 170)
(-2.472136021 7.608451843 170)
(-3.144200087 7.356222153 170)
(7.711702824 2.128294945 170)
(-7.711702824 2.128294945 170)
(-7.489879131 2.810998917 170)
(-7.207750797 3.471070051 170)
(7.489879131 2.810998917 170)
(-6.867589951 4.103194237 170)
(-3.144200087 -7.356222153 170)
(-2.472136021 -7.608451843 170)
(-3.790949106 -7.044764042 170)
(-1.780166984 -7.799423218 170)
(-3.790949106 7.044764042 170)
(7.207750797 3.471070051 170)
(6.867589951 4.103194237 170)
(-4.407176018 6.676586151 170)
(-4.9879179 6.254652023 170)
(-6.024571896 5.263510227 170)
(-6.472136021 4.702281952 170)
(-5.528501034 5.782359123 170)
(6.472136021 4.702281952 170)
(-4.407176018 -6.676586151 170)
(6.024571896 5.263510227 170)
(5.528501034 5.782359123 170)
(-7.452309132 -15.27950001 16)
(-6.368311882 -15.76212978 16)
(-4.112671852 -16.49502945 16)
(-2.952018976 -16.74172974 16)
(-1.776983976 -16.90686989 16)
(-0.5932914019 -16.98963928 16)
(0.5932914019 -16.98963928 16)
(1.776983976 -16.90686989 16)
(2.952018976 -16.74172974 16)
(4.112671852 -16.49502945 16)
(6.368311882 -15.76212978 16)
(7.452309132 -15.27950001 16)
(8.5 -14.72243023 16)
(9.506278992 -14.09364033 16)
(16.83456039 2.365942955 16)
(16.62850952 3.53449893 16)
(10.46625042 -13.39618015 16)
(11.3752203 -12.63346004 16)
(16.34144974 4.685834885 16)
(12.22877979 -11.8091898 16)
(15.97476959 5.814342022 16)
(13.02276039 -10.9273901 16)
(14.41681957 -9.008626938 16)
(15.53026962 6.914523125 16)
(15.0101099 7.981017113 16)
(15.0101099 -7.981017113 16)
(15.53026962 -6.914523125 16)
(14.41681957 9.008626938 16)
(15.97476959 -5.814342022 16)
(16.34144974 -4.685834885 16)
(16.62850952 -3.53449893 16)
(16.83456039 -2.365942955 16)
(13.02276039 10.9273901 16)
(12.22877979 11.8091898 16)
(16.95858955 1.185860038 16)
(11.3752203 12.63346004 16)
(10.46625042 13.39618015 16)
(9.506278992 14.09364033 16)
(8.5 14.72243023 16)
(7.452309132 15.27950001 16)
(6.368311882 15.76212978 16)
(4.112671852 16.49502945 16)
(2.952018976 16.74172974 16)
(1.776983976 16.90686989 16)
(0.5932914019 16.98963928 16)
(-0.5932914019 16.98963928 16)
(-1.776983976 16.90686989 16)
(-2.952018976 16.74172974 16)
(-4.112671852 16.49502945 16)
(-6.368311882 15.76212978 16)
(-7.452309132 15.27950001 16)
(-8.5 14.72243023 16)
(-9.506278992 14.09364033 16)
(-10.46625042 13.39618015 16)
(-11.3752203 12.63346004 16)
(-12.22877979 11.8091898 16)
(-13.02276039 10.9273901 16)
(-14.41681957 9.008626938 16)
(-15.0101099 7.981017113 16)
(-15.53026962 6.914523125 16)
(-15.97476959 5.814342022 16)
(-16.34144974 4.685834885 16)
(-16.62850952 3.53449893 16)
(-16.83456039 2.365942955 16)
(-16.95858955 1.185860038 16)
(16.95858955 -1.185860038 16)
(-16.95858955 -1.185860038 16)
(-16.83456039 -2.365942955 16)
(-16.62850952 -3.53449893 16)
(-16.34144974 -4.685834885 16)
(-15.97476959 -5.814342022 16)
(-15.53026962 -6.914523125 16)
(-15.0101099 -7.981017113 16)
(-14.41681957 -9.008626938 16)
(-13.02276039 -10.9273901 16)
(-12.22877979 -11.8091898 16)
(-11.3752203 -12.63346004 16)
(-10.46625042 -13.39618015 16)
(-9.506278992 -14.09364033 16)
(-8.5 -14.72243023 16)
(10.44583988 -38.61196899 0)
(13.99870968 -37.47047043 0)
(20.70907974 -34.22182846 0)
(23.80817032 -32.14297867 0)
(29.35951042 -27.16650963 0)
(31.76345062 -24.31220055 0)
(35.72343063 -17.99546051 0)
(37.24499893 -14.5880003 0)
(39.30522156 -7.422934055 0)
(39.82593155 -3.727689028 0)
(-0.6033437252 39.99544907 0)
(3.124928951 39.8777504 0)
(39.82608032 3.72607398 0)
(39.30582047 7.419744968 0)
(10.46776962 38.60602951 0)
(14.01846981 37.46308136 0)
(37.24737167 14.58195972 0)
(35.7270813 17.98821068 0)
(20.72434998 34.21258926 0)
(23.82121086 32.13331985 0)
(31.7703495 24.30318069 0)
(29.36833 27.15698051 0)
(-25.97249985 -30.42086983 0)
(-28.61725044 -27.94732094 0)
(-31.02746964 -25.24473 0)
(-23.11487961 -32.64509964 0)
(-33.18339157 -22.33522987 0)
(-20.06781006 -34.60177994 0)
(-35.06734848 -19.2426796 0)
(-36.66390991 -15.9924202 0)
(-16.85627937 -36.27487183 0)
(-37.95998001 -12.61108971 0)
(-13.50660038 -37.65066147 0)
(-38.94493866 -9.12640667 0)
(-10.04621983 -38.7178688 0)
(-6.503500938 -39.46776962 0)
(-2.907484055 -39.89419174 0)
(0.7123624086 -39.99365997 0)
(-39.95185852 -1.961815953 0)
(-39.96556854 1.659369946 0)
(-39.65171814 5.266956806 0)
(-39.01290894 8.831377029 0)
(-38.05435181 12.32341957 0)
(-36.78390884 15.71446037 0)
(-35.2120018 18.97670937 0)
(-33.35149002 22.08342934 0)
(-31.21764946 25.00915909 0)
(-28.82795906 27.72991943 0)
(-26.20199966 30.22341919 0)
(-23.36129951 32.46921158 0)
(-20.32913017 34.44889069 0)
(-17.13035965 36.14624023 0)
(-13.79117966 37.54735184 0)
(-10.33897972 38.64072037 0)
(7.958954811 0.8093466163 170)
(7.836239815 1.610388041 170)
(7.633113861 2.39490509 170)
(7.351662159 3.154846907 170)
(6.994772911 3.88241601 170)
(6.566108227 4.570146084 170)
(6.070065022 5.210979939 170)
(5.511734962 5.798342228 170)
(4.896848202 6.326206207 170)
(4.231711864 6.789154053 170)
(3.523153067 7.182435989 170)
(2.778441906 7.502017021 170)
(2.005219936 7.744616985 170)
(1.211421967 7.907746792 170)
(0.4051933885 7.989731789 170)
(-0.4051933885 7.989731789 170)
(-1.211421967 7.907746792 170)
(-2.005219936 7.744616985 170)
(-2.778441906 7.502017021 170)
(-3.523153067 7.182435989 170)
(-4.231711864 6.789154053 170)
(-4.896848202 6.326206207 170)
(-5.511734962 5.798342228 170)
(-6.070065022 5.210979939 170)
(-6.566108227 4.570146084 170)
(-6.994772911 3.88241601 170)
(-7.351662159 3.154846907 170)
(-7.633113861 2.39490509 170)
(-7.836239815 1.610388041 170)
(-7.958954811 0.8093466163 170)
(-7.958954811 -0.8093466163 170)
(-7.836239815 -1.610388041 170)
(-7.633113861 -2.39490509 170)
(-7.351662159 -3.154846907 170)
(-6.994772911 -3.88241601 170)
(-6.566108227 -4.570146084 170)
(-6.070065022 -5.210979939 170)
(-5.511734962 -5.798342228 170)
(-4.896848202 -6.326206207 170)
(-4.231711864 -6.789154053 170)
(-3.523153067 -7.182435989 170)
(-2.778441906 -7.502017021 170)
(-2.005219936 -7.744616985 170)
(-1.211421967 -7.907746792 170)
(-0.4051933885 -7.989731789 170)
(0.4051933885 -7.989731789 170)
(1.211421967 -7.907746792 170)
(2.005219936 -7.744616985 170)
(2.778441906 -7.502017021 170)
(3.523153067 -7.182435989 170)
(4.231711864 -6.789154053 170)
(4.896848202 -6.326206207 170)
(5.511734962 -5.798342228 170)
(6.070065022 -5.210979939 170)
(6.566108227 -4.570146084 170)
(6.994772911 -3.88241601 170)
(7.351662159 -3.154846907 170)
(7.633113861 -2.39490509 170)
(7.836239815 -1.610388041 170)
(7.958954811 -0.8093466163 170)
(38.55850983 -10.64146996 170)
(39.35718155 -7.14227581 170)
(-5.369330883 39.63798904 170)
(-8.900836945 38.9971199 170)
(39.83897018 -3.585572004 170)
(-1.794592977 39.95972061 170)
(1.794592977 39.95972061 170)
(39.83897018 3.585572004 170)
(5.369330883 39.63798904 170)
(39.35718155 7.14227581 170)
(8.900836945 38.9971199 170)
(38.55850983 10.64146996 170)
(12.36067963 38.04225922 170)
(37.44939041 14.05498981 170)
(15.72099972 36.78110886 170)
(36.03874969 17.35535049 170)
(18.95475006 35.22381973 170)
(34.33795166 20.51597023 170)
(22.03587914 33.38293076 170)
(-30.12285995 -26.31755066 170)
(-27.64250946 -28.91179085 170)
(32.36067963 23.51140976 170)
(24.93959045 31.27326012 170)
(30.12285995 26.31755066 170)
(27.64250946 28.91179085 170)
(-24.93959045 -31.27326012 170)
(-32.36067963 -23.51140976 170)
(-22.03587914 -33.38293076 170)
(-34.33795166 -20.51597023 170)
(-18.95475006 -35.22381973 170)
(-36.03874969 -17.35535049 170)
(-15.72099972 -36.78110886 170)
(-37.44939041 -14.05498981 170)
(-12.36067963 -38.04225922 170)
(-38.55850983 -10.64146996 170)
(-8.900836945 -38.9971199 170)
(-39.35718155 -7.14227581 170)
(-5.369330883 -39.63798904 170)
(-39.83897018 -3.585572004 170)
(-1.794592977 -39.95972061 170)
(1.794592977 -39.95972061 170)
(-39.83897018 3.585572004 170)
(5.369330883 -39.63798904 170)
(-39.35718155 7.14227581 170)
(8.900836945 -38.9971199 170)
(-38.55850983 10.64146996 170)
(12.36067963 -38.04225922 170)
(-37.44939041 14.05498981 170)
(15.72099972 -36.78110886 170)
(-36.03874969 17.35535049 170)
(18.95475006 -35.22381973 170)
(-34.33795166 20.51597023 170)
(22.03587914 -33.38293076 170)
(-32.36067963 23.51140976 170)
(24.93959045 -31.27326012 170)
(-30.12285995 26.31755066 170)
(27.64250946 -28.91179085 170)
(-27.64250946 28.91179085 170)
(30.12285995 -26.31755066 170)
(-24.93959045 31.27326012 170)
(32.36067963 -23.51140976 170)
(-22.03587914 33.38293076 170)
(34.33795166 -20.51597023 170)
(-18.95475006 35.22381973 170)
(36.03874969 -17.35535049 170)
(-15.72099972 36.78110886 170)
(37.44939041 -14.05498981 170)
(-12.36067963 38.04225922 170)
(-7.162615776 -36.16820908 0)
(-5.328167915 -37.27127075 0)
(-3.32879591 -38.03575897 0)
(-1.226385951 -38.43803024 0)
(0.9139837027 -38.46561813 0)
(3.026062965 -38.1176796 0)
(-7.153036118 -37.17517853 0)
(-5.296192169 -38.28678894 0)
(-3.27177906 -39.05183029 0)
(-1.143849015 -39.44610977 0)
(1.02027297 -39.45714951 0)
(3.152113914 -39.08459091 0)
(7.162615776 36.16820908 0)
(5.328167915 37.27127075 0)
(3.32879591 38.03575897 0)
(1.226385951 38.43803024 0)
(-0.9139837027 38.46561813 0)
(-3.026062965 38.1176796 0)
(7.153036118 37.17517853 0)
(5.296192169 38.28678894 0)
(3.27177906 39.05183029 0)
(1.143849015 39.44610977 0)
(-1.02027297 39.45714951 0)
(-3.152113914 39.08459091 0)
)


// edges:

731
(
(8 57)
(58 9)
(12 61)
(62 13)
(12 65)
(65 66)
(66 13)
(8 67)
(67 68)
(68 9)
(69 70)
(70 71)
(72 73)
(74 72)
(71 75)
(76 74)
(75 76)
(39 40)
(45 43)
(77 78)
(79 77)
(78 80)
(81 79)
(80 82)
(83 84)
(84 81)
(55 85)
(85 86)
(86 69)
(87 83)
(88 87)
(31 88)
(89 56)
(90 89)
(73 90)
(82 91)
(91 92)
(92 29)
(57 59)
(59 60)
(60 58)
(61 63)
(63 64)
(64 62)
(93 94)
(95 96)
(97 93)
(96 98)
(99 97)
(98 1)
(100 99)
(1 101)
(2 100)
(102 2)
(103 102)
(101 104)
(105 103)
(104 106)
(107 105)
(106 3)
(108 107)
(3 109)
(110 108)
(109 111)
(112 110)
(111 113)
(114 112)
(113 4)
(115 114)
(4 116)
(117 115)
(116 118)
(119 117)
(118 120)
(121 119)
(120 5)
(122 121)
(5 123)
(124 122)
(123 125)
(126 124)
(127 126)
(125 128)
(129 127)
(128 6)
(130 129)
(6 131)
(132 130)
(131 133)
(134 132)
(133 135)
(136 134)
(135 7)
(137 136)
(7 138)
(139 137)
(138 140)
(141 8)
(140 141)
(142 139)
(9 143)
(144 142)
(145 144)
(146 145)
(147 146)
(143 148)
(148 149)
(150 147)
(149 151)
(152 150)
(151 153)
(154 152)
(153 155)
(156 154)
(155 157)
(158 156)
(157 159)
(160 158)
(159 161)
(162 160)
(161 163)
(164 162)
(163 165)
(166 164)
(165 167)
(168 166)
(167 169)
(170 168)
(169 171)
(172 170)
(171 173)
(174 172)
(173 175)
(176 174)
(175 177)
(178 176)
(179 178)
(177 180)
(181 179)
(180 182)
(183 181)
(182 184)
(185 183)
(184 186)
(10 185)
(187 10)
(186 188)
(189 187)
(188 11)
(190 189)
(11 191)
(192 190)
(191 193)
(194 192)
(193 195)
(196 194)
(195 197)
(198 196)
(197 199)
(200 198)
(199 201)
(202 200)
(201 203)
(204 202)
(203 205)
(206 204)
(205 207)
(208 206)
(207 209)
(210 208)
(209 211)
(212 210)
(211 213)
(213 214)
(215 212)
(214 216)
(217 215)
(216 218)
(219 217)
(218 220)
(221 219)
(220 222)
(223 221)
(222 224)
(225 223)
(224 226)
(227 225)
(226 228)
(229 227)
(228 230)
(231 229)
(232 12)
(230 232)
(233 231)
(13 234)
(235 233)
(236 235)
(237 236)
(238 237)
(234 239)
(240 238)
(239 241)
(241 14)
(242 240)
(14 243)
(244 242)
(243 245)
(246 244)
(247 246)
(245 248)
(249 247)
(248 15)
(250 249)
(15 251)
(252 250)
(251 253)
(254 252)
(253 255)
(256 254)
(255 16)
(257 256)
(16 258)
(259 257)
(258 260)
(261 259)
(260 262)
(263 261)
(262 0)
(94 263)
(0 95)
(264 265)
(266 267)
(268 266)
(18 268)
(269 19)
(19 270)
(271 272)
(272 21)
(273 271)
(274 18)
(275 274)
(276 277)
(278 276)
(279 278)
(265 280)
(280 275)
(281 273)
(282 281)
(270 283)
(283 284)
(285 279)
(22 285)
(286 287)
(287 288)
(21 286)
(284 289)
(289 290)
(291 282)
(23 291)
(292 23)
(293 22)
(294 293)
(288 295)
(295 296)
(290 297)
(298 292)
(299 298)
(24 300)
(300 301)
(297 24)
(302 25)
(25 303)
(296 302)
(304 305)
(306 294)
(307 306)
(308 307)
(309 308)
(301 310)
(310 311)
(26 309)
(312 26)
(303 313)
(313 304)
(314 299)
(315 314)
(316 315)
(20 316)
(311 317)
(317 318)
(319 312)
(320 319)
(318 17)
(267 320)
(321 20)
(277 321)
(305 322)
(322 269)
(17 323)
(323 264)
(324 325)
(326 324)
(325 327)
(328 329)
(330 328)
(327 331)
(329 332)
(331 333)
(332 334)
(335 330)
(336 337)
(337 338)
(338 339)
(339 340)
(341 342)
(343 341)
(342 344)
(344 326)
(333 345)
(345 346)
(340 347)
(347 348)
(349 350)
(351 349)
(350 335)
(346 352)
(352 353)
(354 355)
(356 354)
(348 357)
(357 358)
(358 359)
(353 27)
(355 343)
(334 360)
(361 28)
(362 361)
(28 351)
(363 356)
(364 363)
(27 365)
(365 366)
(359 367)
(367 368)
(368 369)
(366 370)
(371 362)
(372 371)
(373 372)
(370 374)
(375 373)
(376 377)
(378 376)
(377 379)
(369 380)
(374 381)
(381 382)
(380 383)
(383 384)
(379 364)
(385 386)
(387 385)
(386 375)
(384 387)
(382 388)
(389 378)
(360 389)
(388 390)
(390 391)
(391 336)
(392 393)
(393 23)
(23 394)
(394 395)
(395 396)
(396 397)
(397 398)
(398 399)
(399 400)
(400 401)
(401 20)
(20 402)
(402 403)
(403 404)
(404 405)
(406 407)
(405 408)
(408 409)
(407 410)
(409 411)
(410 412)
(411 413)
(413 22)
(22 414)
(412 415)
(415 416)
(414 417)
(417 418)
(416 419)
(418 420)
(420 421)
(421 422)
(422 423)
(419 18)
(18 424)
(424 425)
(26 426)
(425 427)
(426 406)
(427 428)
(428 429)
(429 430)
(430 431)
(431 432)
(432 17)
(17 433)
(433 434)
(434 435)
(435 436)
(436 437)
(437 438)
(438 439)
(439 440)
(440 24)
(24 441)
(441 442)
(442 443)
(443 444)
(444 445)
(445 446)
(446 447)
(447 448)
(448 19)
(19 449)
(449 450)
(450 451)
(451 452)
(452 453)
(453 454)
(454 455)
(455 456)
(423 457)
(457 26)
(456 25)
(25 458)
(458 459)
(459 460)
(460 461)
(461 462)
(462 463)
(463 464)
(464 465)
(465 21)
(21 466)
(466 467)
(467 468)
(468 469)
(469 470)
(471 392)
(470 471)
(472 13)
(473 472)
(14 473)
(474 14)
(475 474)
(15 475)
(476 15)
(477 476)
(16 477)
(478 16)
(479 478)
(0 479)
(480 0)
(481 480)
(29 30)
(32 31)
(30 33)
(8 482)
(1 481)
(33 34)
(34 35)
(36 37)
(482 483)
(35 38)
(484 1)
(40 41)
(41 42)
(483 7)
(485 484)
(7 486)
(3 485)
(486 487)
(488 3)
(487 6)
(489 488)
(6 490)
(4 489)
(490 491)
(492 4)
(491 5)
(5 493)
(493 492)
(42 36)
(37 32)
(38 39)
(494 495)
(495 496)
(497 494)
(496 498)
(499 497)
(498 500)
(500 501)
(502 499)
(501 503)
(504 502)
(503 505)
(506 504)
(507 506)
(43 44)
(44 46)
(508 507)
(505 11)
(47 48)
(49 50)
(509 508)
(11 510)
(51 47)
(52 51)
(510 511)
(53 52)
(12 509)
(54 55)
(56 53)
(511 512)
(512 513)
(513 514)
(514 515)
(515 516)
(516 517)
(517 518)
(518 519)
(519 520)
(520 521)
(521 522)
(522 523)
(523 524)
(524 525)
(525 9)
(46 49)
(50 54)
(48 45)
(526 27)
(527 526)
(528 527)
(529 528)
(530 529)
(531 530)
(532 531)
(533 532)
(534 533)
(535 534)
(536 535)
(537 536)
(538 537)
(539 538)
(540 539)
(541 540)
(542 541)
(543 542)
(544 543)
(545 544)
(546 545)
(547 546)
(548 547)
(549 548)
(550 549)
(551 550)
(552 551)
(553 552)
(554 553)
(555 554)
(28 555)
(556 28)
(557 556)
(558 557)
(559 558)
(560 559)
(561 560)
(562 561)
(563 562)
(564 563)
(565 564)
(566 565)
(567 566)
(568 567)
(569 568)
(570 569)
(571 570)
(572 571)
(573 572)
(574 573)
(575 574)
(576 575)
(577 576)
(578 577)
(579 578)
(580 579)
(581 580)
(582 581)
(583 582)
(584 583)
(585 584)
(27 585)
(586 587)
(588 589)
(587 590)
(591 588)
(590 2)
(592 591)
(2 593)
(594 592)
(593 595)
(596 594)
(595 597)
(598 596)
(597 599)
(600 598)
(599 601)
(602 600)
(601 603)
(604 602)
(605 606)
(603 607)
(608 604)
(607 609)
(609 610)
(606 611)
(610 608)
(612 605)
(611 613)
(614 612)
(613 615)
(616 614)
(615 617)
(618 616)
(617 619)
(620 618)
(619 621)
(622 620)
(621 623)
(624 622)
(623 625)
(625 626)
(627 10)
(10 624)
(626 628)
(629 627)
(628 630)
(631 629)
(630 632)
(633 631)
(632 634)
(635 633)
(634 636)
(637 635)
(636 638)
(639 637)
(638 640)
(641 639)
(640 642)
(643 641)
(642 644)
(645 643)
(644 646)
(647 645)
(646 648)
(649 647)
(648 650)
(651 649)
(650 652)
(653 651)
(652 586)
(589 653)
(45 654)
(654 48)
(48 655)
(655 47)
(47 656)
(656 51)
(51 657)
(657 52)
(52 658)
(658 53)
(53 659)
(659 56)
(660 43)
(44 660)
(661 44)
(46 661)
(662 46)
(49 662)
(663 49)
(50 663)
(664 50)
(54 664)
(665 54)
(55 665)
(39 666)
(666 38)
(38 667)
(667 35)
(35 668)
(668 34)
(34 669)
(669 33)
(33 670)
(670 30)
(30 671)
(671 29)
(672 40)
(41 672)
(673 41)
(42 673)
(674 42)
(36 674)
(675 36)
(37 675)
(676 37)
(32 676)
(677 32)
(31 677)
)

// * * * * * * * * * * * * * * * * * * * * * * * * * * * * * * * * * * * * * //


// ************************************************************************* //
