/*--------------------------------*- C++ -*----------------------------------*\
| =========                 |                                                 |
| \\      /  F ield         | OpenFOAM: The Open Source CFD Toolbox           |
|  \\    /   O peration     | Version:  v1912                                 |
|   \\  /    A nd           | Website:  www.openfoam.com                      |
|    \\/     M anipulation  |                                                 |
\*---------------------------------------------------------------------------*/
FoamFile
{
    version     2.0;
    format      ascii;
    class       dictionary;
    location    "system";
    object      controlDict;
}
// * * * * * * * * * * * * * * * * * * * * * * * * * * * * * * * * * * * * * //

pointSync false;

patches
(
    {
        name inlet;
        patchInfo
        {
            type patch;
        }
        constructFrom patches;
        patches (auto0);
    }

    {
        name outlet;
        patchInfo
        {
            type patch;
        }
        constructFrom patches;
        patches (auto3);
    }

    {
        name upperWall;
        patchInfo
        {
            type wall;
        }
        constructFrom patches;
        patches (auto6);
    }

    {
        name lowerWall;
        patchInfo
        {
            type wall;
        }
        constructFrom patches;
        patches (auto1 auto5 auto7);
    }

    {
        name frontAndBack;
        patchInfo
        {
            type empty;
        }
        constructFrom patches;
        patches (auto2 auto4);
    }
);

// ************************************************************************* //
