/*--------------------------------*- C++ -*----------------------------------*\
| =========                 |                                                 |
| \\      /  F ield         | OpenFOAM: The Open Source CFD Toolbox           |
|  \\    /   O peration     | Version:  2012                                  |
|   \\  /    A nd           | Website:  www.openfoam.com                      |
|    \\/     M anipulation  |                                                 |
\*---------------------------------------------------------------------------*/
FoamFile
{
    version     2.0;
    format      ascii;
    class       extendedFeatureEdgeMesh;
    location    "constant/extendedFeatureEdgeMesh";
    object      cross.extendedFeatureEdgeMesh;
}
// * * * * * * * * * * * * * * * * * * * * * * * * * * * * * * * * * * * * * //

// points

272
(
(-0.02500000037 -0.02500000037 0)
(0.02500000037 0.02500000037 0)
(-0.02500000037 0.02500000037 0)
(0.02500000037 -0.02500000037 0)
(-0.02500000037 -0.02500000037 0.1000000015)
(0.02500000037 0.02500000037 0.1000000015)
(-0.02500000037 0.02500000037 0.1000000015)
(0.02500000037 -0.02500000037 0.1000000015)
(0.06057110056 -0.3953869939 0.1000000015)
(0.06057110056 -0.3953869939 0)
(0.1002610028 -0.3872309923 0)
(0.1002610028 -0.3872309923 0.1000000015)
(0.400000006 0 0)
(0.400000006 0 0.1000000015)
(0.1389220059 -0.3751010001 0)
(0.3979479969 0.04046729952 0.1000000015)
(0.3979479969 0.04046729952 0)
(0.1389220059 -0.3751010001 0.1000000015)
(0.1761579961 -0.3591220081 0)
(0.3918119967 0.08051940054 0)
(0.1761579961 -0.3591220081 0.1000000015)
(0.3918119967 0.08051940054 0.1000000015)
(0.2115859985 -0.3394579887 0)
(0.2115859985 -0.3394579887 0.1000000015)
(0.3816559911 0.1197450012 0.1000000015)
(0.3816559911 0.1197450012 0)
(0.2448419929 -0.3163099885 0.1000000015)
(0.2448419929 -0.3163099885 0)
(0.3675830066 0.1577419937 0.1000000015)
(0.3675830066 0.1577419937 0)
(0.2755869925 -0.2899169922 0)
(0.3497389853 0.1941210032 0)
(0.2755869925 -0.2899169922 0.1000000015)
(0.3035030067 -0.2605490088 0)
(0.3497389853 0.1941210032 0.1000000015)
(0.3035030067 -0.2605490088 0.1000000015)
(0.328305006 0.2285069972 0)
(0.328305006 -0.2285069972 0)
(0.328305006 0.2285069972 0.1000000015)
(0.328305006 -0.2285069972 0.1000000015)
(0.3497389853 -0.1941210032 0)
(0.3035030067 0.2605490088 0.1000000015)
(0.3035030067 0.2605490088 0)
(0.3497389853 -0.1941210032 0.1000000015)
(0.2755869925 0.2899169922 0)
(0.3675830066 -0.1577419937 0.1000000015)
(0.2755869925 0.2899169922 0.1000000015)
(0.3675830066 -0.1577419937 0)
(0.2448419929 0.3163099885 0)
(0.3816559911 -0.1197450012 0.1000000015)
(0.3816559911 -0.1197450012 0)
(0.2448419929 0.3163099885 0.1000000015)
(0.3918119967 -0.08051940054 0)
(0.2115859985 0.3394579887 0)
(0.3918119967 -0.08051940054 0.1000000015)
(0.2115859985 0.3394579887 0.1000000015)
(0.3979479969 -0.04046729952 0)
(0.3979479969 -0.04046729952 0.1000000015)
(0.1761579961 0.3591220081 0.1000000015)
(0.1761579961 0.3591220081 0)
(0.1389220059 0.3751010001 0.1000000015)
(0.1389220059 0.3751010001 0)
(0.1002610028 0.3872309923 0.1000000015)
(0.1002610028 0.3872309923 0)
(0.06057110056 0.3953869939 0)
(0.06057110056 0.3953869939 0.1000000015)
(0.02025970072 0.3994869888 0.1000000015)
(0.02025970072 0.3994869888 0)
(-0.02025970072 0.3994869888 0.1000000015)
(-0.02025970072 0.3994869888 0)
(-0.06057110056 0.3953869939 0.1000000015)
(-0.06057110056 0.3953869939 0)
(-0.1002610028 0.3872309923 0.1000000015)
(-0.1002610028 0.3872309923 0)
(-0.1389220059 0.3751010001 0.1000000015)
(-0.1389220059 0.3751010001 0)
(-0.1761579961 0.3591220081 0.1000000015)
(-0.1761579961 0.3591220081 0)
(-0.2115859985 0.3394579887 0)
(-0.2115859985 0.3394579887 0.1000000015)
(-0.2448419929 0.3163099885 0)
(-0.2448419929 0.3163099885 0.1000000015)
(-0.2755869925 0.2899169922 0)
(-0.2755869925 0.2899169922 0.1000000015)
(-0.3035030067 0.2605490088 0)
(-0.3035030067 0.2605490088 0.1000000015)
(-0.328305006 0.2285069972 0)
(-0.328305006 0.2285069972 0.1000000015)
(-0.3497389853 0.1941210032 0.1000000015)
(-0.3497389853 0.1941210032 0)
(-0.3675830066 0.1577419937 0.1000000015)
(-0.3675830066 0.1577419937 0)
(-0.3816559911 0.1197450012 0)
(-0.3816559911 0.1197450012 0.1000000015)
(-0.3918119967 0.08051940054 0)
(-0.3918119967 0.08051940054 0.1000000015)
(-0.3979479969 0.04046729952 0)
(-0.3979479969 0.04046729952 0.1000000015)
(-0.400000006 0 0)
(-0.400000006 0 0.1000000015)
(-0.3979479969 -0.04046729952 0.1000000015)
(-0.3979479969 -0.04046729952 0)
(-0.3918119967 -0.08051940054 0)
(-0.3918119967 -0.08051940054 0.1000000015)
(-0.3816559911 -0.1197450012 0.1000000015)
(-0.3816559911 -0.1197450012 0)
(-0.3675830066 -0.1577419937 0.1000000015)
(-0.3675830066 -0.1577419937 0)
(-0.3497389853 -0.1941210032 0)
(-0.3497389853 -0.1941210032 0.1000000015)
(-0.328305006 -0.2285069972 0)
(-0.328305006 -0.2285069972 0.1000000015)
(-0.3035030067 -0.2605490088 0.1000000015)
(-0.3035030067 -0.2605490088 0)
(-0.2755869925 -0.2899169922 0)
(-0.2755869925 -0.2899169922 0.1000000015)
(-0.2448419929 -0.3163099885 0.1000000015)
(-0.2448419929 -0.3163099885 0)
(-0.2115859985 -0.3394579887 0.1000000015)
(-0.2115859985 -0.3394579887 0)
(-0.1761579961 -0.3591220081 0)
(-0.1761579961 -0.3591220081 0.1000000015)
(-0.1389220059 -0.3751010001 0)
(-0.1389220059 -0.3751010001 0.1000000015)
(-0.1002610028 -0.3872309923 0)
(-0.1002610028 -0.3872309923 0.1000000015)
(-0.06057110056 -0.3953869939 0)
(-0.06057110056 -0.3953869939 0.1000000015)
(-0.02025970072 -0.3994869888 0)
(-0.02025970072 -0.3994869888 0.1000000015)
(0.02025970072 -0.3994869888 0.1000000015)
(0.02025970072 -0.3994869888 0)
(0.02500000037 0.3000000119 0)
(-0.02500000037 -0.3000000119 0)
(-0.3000000119 0.02500000037 0)
(0.3000000119 0.02500000037 0)
(0.02500000037 -0.3000000119 0)
(0.3000000119 -0.02500000037 0)
(-0.02500000037 0.3000000119 0)
(-0.3000000119 -0.02500000037 0)
(0.02500000037 0.3000000119 0.1000000015)
(-0.02500000037 -0.3000000119 0.1000000015)
(-0.3000000119 0.02500000037 0.1000000015)
(0.3000000119 0.02500000037 0.1000000015)
(0.02500000037 -0.3000000119 0.1000000015)
(0.3000000119 -0.02500000037 0.1000000015)
(-0.02500000037 0.3000000119 0.1000000015)
(-0.3000000119 -0.02500000037 0.1000000015)
(0.08051940054 -0.3918119967 0)
(0.04046729952 -0.3979479969 0.1000000015)
(0.08051940054 -0.3918119967 0.1000000015)
(0.1197450012 -0.3816559911 0)
(0.3994869888 0.02025970072 0)
(0.3994869888 0.02025970072 0.1000000015)
(0.1197450012 -0.3816559911 0.1000000015)
(0.1577419937 -0.3675830066 0)
(0.3953869939 0.06057110056 0)
(0.3953869939 0.06057110056 0.1000000015)
(0.1577419937 -0.3675830066 0.1000000015)
(0.1941210032 -0.3497389853 0)
(0.3872309923 0.1002610028 0)
(0.1941210032 -0.3497389853 0.1000000015)
(0.3872309923 0.1002610028 0.1000000015)
(0.2285069972 -0.328305006 0)
(0.2285069972 -0.328305006 0.1000000015)
(0.3751010001 0.1389220059 0)
(0.3751010001 0.1389220059 0.1000000015)
(0.2605490088 -0.3035030067 0)
(0.2605490088 -0.3035030067 0.1000000015)
(0.3591220081 0.1761579961 0)
(0.2899169922 -0.2755869925 0)
(0.3591220081 0.1761579961 0.1000000015)
(0.2899169922 -0.2755869925 0.1000000015)
(0.3163099885 -0.2448419929 0)
(0.3394579887 0.2115859985 0)
(0.3394579887 0.2115859985 0.1000000015)
(0.3163099885 -0.2448419929 0.1000000015)
(0.3394579887 -0.2115859985 0)
(0.3163099885 0.2448419929 0.1000000015)
(0.3163099885 0.2448419929 0)
(0.3394579887 -0.2115859985 0.1000000015)
(0.3591220081 -0.1761579961 0.1000000015)
(0.2899169922 0.2755869925 0.1000000015)
(0.2899169922 0.2755869925 0)
(0.3591220081 -0.1761579961 0)
(0.3751010001 -0.1389220059 0)
(0.3751010001 -0.1389220059 0.1000000015)
(0.2605490088 0.3035030067 0.1000000015)
(0.2605490088 0.3035030067 0)
(0.3872309923 -0.1002610028 0)
(0.3872309923 -0.1002610028 0.1000000015)
(0.2285069972 0.328305006 0.1000000015)
(0.2285069972 0.328305006 0)
(0.3953869939 -0.06057110056 0)
(0.3953869939 -0.06057110056 0.1000000015)
(0.1941210032 0.3497389853 0.1000000015)
(0.1941210032 0.3497389853 0)
(0.3994869888 -0.02025970072 0.1000000015)
(0.3994869888 -0.02025970072 0)
(0.1577419937 0.3675830066 0.1000000015)
(0.1577419937 0.3675830066 0)
(0.1197450012 0.3816559911 0)
(0.1197450012 0.3816559911 0.1000000015)
(0.08051940054 0.3918119967 0)
(0.08051940054 0.3918119967 0.1000000015)
(0.04046729952 0.3979479969 0)
(0.04046729952 0.3979479969 0.1000000015)
(0 0.400000006 0)
(0 0.400000006 0.1000000015)
(-0.04046729952 0.3979479969 0)
(-0.04046729952 0.3979479969 0.1000000015)
(-0.08051940054 0.3918119967 0)
(-0.08051940054 0.3918119967 0.1000000015)
(-0.1197450012 0.3816559911 0)
(-0.1197450012 0.3816559911 0.1000000015)
(-0.1577419937 0.3675830066 0)
(-0.1577419937 0.3675830066 0.1000000015)
(-0.1941210032 0.3497389853 0)
(-0.1941210032 0.3497389853 0.1000000015)
(-0.2285069972 0.328305006 0.1000000015)
(-0.2285069972 0.328305006 0)
(-0.2605490088 0.3035030067 0.1000000015)
(-0.2605490088 0.3035030067 0)
(-0.2899169922 0.2755869925 0)
(-0.2899169922 0.2755869925 0.1000000015)
(-0.3163099885 0.2448419929 0.1000000015)
(-0.3163099885 0.2448419929 0)
(-0.3394579887 0.2115859985 0)
(-0.3394579887 0.2115859985 0.1000000015)
(-0.3591220081 0.1761579961 0)
(-0.3591220081 0.1761579961 0.1000000015)
(-0.3751010001 0.1389220059 0)
(-0.3751010001 0.1389220059 0.1000000015)
(-0.3872309923 0.1002610028 0)
(-0.3872309923 0.1002610028 0.1000000015)
(-0.3953869939 0.06057110056 0)
(-0.3953869939 0.06057110056 0.1000000015)
(-0.3994869888 0.02025970072 0)
(-0.3994869888 0.02025970072 0.1000000015)
(-0.3994869888 -0.02025970072 0)
(-0.3994869888 -0.02025970072 0.1000000015)
(-0.3953869939 -0.06057110056 0)
(-0.3953869939 -0.06057110056 0.1000000015)
(-0.3872309923 -0.1002610028 0)
(-0.3872309923 -0.1002610028 0.1000000015)
(-0.3751010001 -0.1389220059 0)
(-0.3751010001 -0.1389220059 0.1000000015)
(-0.3591220081 -0.1761579961 0)
(-0.3591220081 -0.1761579961 0.1000000015)
(-0.3394579887 -0.2115859985 0)
(-0.3394579887 -0.2115859985 0.1000000015)
(-0.3163099885 -0.2448419929 0)
(-0.3163099885 -0.2448419929 0.1000000015)
(-0.2899169922 -0.2755869925 0)
(-0.2899169922 -0.2755869925 0.1000000015)
(-0.2605490088 -0.3035030067 0)
(-0.2605490088 -0.3035030067 0.1000000015)
(-0.2285069972 -0.328305006 0)
(-0.2285069972 -0.328305006 0.1000000015)
(-0.1941210032 -0.3497389853 0)
(-0.1941210032 -0.3497389853 0.1000000015)
(-0.1577419937 -0.3675830066 0)
(-0.1577419937 -0.3675830066 0.1000000015)
(-0.1197450012 -0.3816559911 0)
(-0.1197450012 -0.3816559911 0.1000000015)
(-0.08051940054 -0.3918119967 0)
(-0.08051940054 -0.3918119967 0.1000000015)
(-0.04046729952 -0.3979479969 0.1000000015)
(-0.04046729952 -0.3979479969 0)
(0 -0.400000006 0)
(0 -0.400000006 0.1000000015)
(0.04046729952 -0.3979479969 0)
)

// edges

408
(
(0 133)
(135 1)
(1 132)
(2 134)
(136 3)
(3 137)
(138 2)
(137 135)
(132 138)
(133 136)
(134 139)
(139 0)
(141 4)
(5 143)
(140 5)
(142 6)
(7 144)
(145 7)
(6 146)
(143 145)
(146 140)
(144 141)
(147 142)
(4 147)
(7 3)
(0 4)
(5 1)
(2 6)
(136 144)
(145 137)
(133 141)
(143 135)
(139 147)
(140 132)
(134 142)
(146 138)
(9 148)
(8 149)
(148 10)
(150 8)
(10 151)
(11 150)
(12 152)
(153 13)
(151 14)
(154 11)
(152 16)
(14 155)
(15 153)
(17 154)
(16 156)
(155 18)
(156 19)
(157 15)
(158 17)
(20 158)
(21 157)
(18 159)
(159 22)
(19 160)
(161 20)
(162 21)
(23 161)
(160 25)
(24 162)
(22 163)
(164 23)
(25 165)
(166 24)
(163 27)
(27 167)
(26 164)
(165 29)
(28 166)
(167 30)
(168 26)
(29 169)
(169 31)
(30 170)
(171 28)
(32 168)
(170 33)
(34 171)
(172 32)
(33 173)
(31 174)
(35 172)
(174 36)
(175 34)
(173 37)
(176 35)
(38 175)
(37 177)
(39 176)
(178 38)
(36 179)
(180 39)
(177 40)
(41 178)
(179 42)
(43 180)
(181 43)
(182 41)
(42 183)
(40 184)
(183 44)
(45 181)
(46 182)
(184 47)
(47 185)
(186 45)
(187 46)
(44 188)
(188 48)
(49 186)
(185 50)
(50 189)
(51 187)
(190 49)
(189 52)
(191 51)
(48 192)
(192 53)
(54 190)
(52 193)
(55 191)
(194 54)
(193 56)
(195 55)
(53 196)
(57 194)
(197 57)
(56 198)
(58 195)
(198 12)
(196 59)
(13 197)
(199 58)
(59 200)
(200 61)
(60 199)
(61 201)
(202 60)
(201 63)
(62 202)
(63 203)
(203 64)
(204 62)
(65 204)
(64 205)
(206 65)
(205 67)
(66 206)
(67 207)
(208 66)
(207 69)
(68 208)
(69 209)
(210 68)
(209 71)
(71 211)
(70 210)
(212 70)
(211 73)
(73 213)
(72 212)
(214 72)
(74 214)
(213 75)
(75 215)
(216 74)
(76 216)
(215 77)
(77 217)
(218 76)
(217 78)
(79 218)
(219 79)
(78 220)
(220 80)
(81 219)
(221 81)
(80 222)
(222 82)
(83 221)
(82 223)
(224 83)
(223 84)
(85 224)
(225 85)
(84 226)
(226 86)
(87 225)
(86 227)
(228 87)
(88 228)
(227 89)
(89 229)
(230 88)
(90 230)
(229 91)
(91 231)
(232 90)
(231 92)
(93 232)
(92 233)
(233 94)
(234 93)
(95 234)
(94 235)
(235 96)
(236 95)
(97 236)
(96 237)
(237 98)
(238 97)
(98 239)
(99 238)
(240 99)
(100 240)
(239 101)
(101 241)
(242 100)
(241 102)
(103 242)
(102 243)
(244 103)
(104 244)
(243 105)
(105 245)
(246 104)
(106 246)
(245 107)
(107 247)
(248 106)
(247 108)
(109 248)
(108 249)
(250 109)
(249 110)
(111 250)
(110 251)
(252 111)
(113 253)
(112 252)
(251 113)
(253 114)
(254 112)
(114 255)
(115 254)
(256 115)
(255 117)
(116 256)
(117 257)
(258 116)
(257 119)
(119 259)
(118 258)
(259 120)
(260 118)
(120 261)
(121 260)
(261 122)
(262 121)
(122 263)
(123 262)
(263 124)
(264 123)
(125 264)
(124 265)
(266 125)
(265 126)
(127 266)
(267 127)
(126 268)
(268 128)
(129 267)
(128 269)
(270 129)
(269 131)
(131 271)
(130 270)
(271 9)
(149 130)
(114 113)
(53 48)
(86 84)
(42 36)
(48 44)
(30 27)
(44 42)
(84 82)
(33 30)
(37 33)
(40 37)
(47 40)
(50 47)
(77 75)
(78 77)
(80 78)
(82 80)
(75 73)
(52 50)
(73 71)
(117 114)
(119 117)
(56 52)
(120 119)
(122 120)
(124 122)
(126 124)
(128 126)
(71 69)
(101 98)
(102 101)
(12 56)
(105 102)
(107 105)
(108 107)
(110 108)
(113 110)
(69 67)
(16 12)
(67 64)
(131 128)
(9 131)
(10 9)
(19 16)
(96 94)
(98 96)
(94 92)
(64 63)
(25 19)
(14 10)
(92 91)
(63 61)
(18 14)
(91 89)
(29 25)
(61 59)
(22 18)
(31 29)
(89 86)
(59 53)
(27 22)
(36 31)
(112 115)
(51 55)
(85 87)
(38 41)
(46 51)
(26 32)
(41 46)
(83 85)
(32 35)
(35 39)
(39 43)
(43 45)
(45 49)
(74 76)
(76 79)
(79 81)
(81 83)
(72 74)
(49 54)
(70 72)
(115 116)
(116 118)
(54 57)
(118 121)
(121 123)
(123 125)
(125 127)
(127 129)
(68 70)
(99 100)
(100 103)
(57 13)
(103 104)
(104 106)
(106 109)
(109 111)
(111 112)
(66 68)
(13 15)
(65 66)
(129 130)
(130 8)
(8 11)
(15 21)
(95 97)
(97 99)
(93 95)
(62 65)
(21 24)
(11 17)
(90 93)
(60 62)
(17 20)
(88 90)
(24 28)
(58 60)
(20 23)
(28 34)
(87 88)
(55 58)
(23 26)
(34 38)
)

// concaveStart mixedStart nonFeatureStart
8 8 148
// internalStart flatStart openStart multipleStart
28 36 36 408
// normals

420
(
(0 0 -1)
(1 0 0)
(0 0 -1)
(0 -1 -0)
(0 0 -1)
(-1 0 -0)
(0 0 -1)
(0 -1 0)
(-0 0 -1)
(-1 0 -0)
(0 0 -1)
(0 1 0)
(0 0 -1)
(1 0 0)
(0 0 -1)
(-1 0 -0)
(0 0 -1)
(0 -1 0)
(0 0 -1)
(0 1 0)
(0 0 -1)
(1 0 0)
(0 0 -1)
(0 1 0)
(0 0 1)
(1 0 0)
(0 0 1)
(0 -1 0)
(0 0 1)
(-1 0 0)
(0 0 1)
(-0 -1 -0)
(0 0 1)
(-1 0 0)
(0 0 1)
(-0 1 0)
(0 0 1)
(1 0 0)
(0 0 1)
(-1 0 0)
(0 0 1)
(-0 -1 -0)
(0 0 1)
(-0 1 0)
(0 0 1)
(1 0 0)
(0 0 1)
(-0 1 0)
(0.1764027194 -0.984318079 0)
(0.1263677741 -0.9919834604 0)
(0.2260422663 -0.9741174949 0)
(0.1764027194 -0.984318079 0)
(0.2750926608 -0.9614177177 0)
(0.2260422663 -0.9741174949 0)
(0.999679551 0.02531393671 0)
(0.999679551 0.02531393671 0)
(0.3234419235 -0.9462480236 0)
(0.2750926608 -0.9614177177 0)
(0.9971124533 0.07593915694 0)
(0.3709651905 -0.9286467721 0)
(0.9971124533 0.07593915694 0)
(0.3234419235 -0.9462480236 0)
(0.9919834604 0.1263677741 0)
(0.4174835502 -0.9086844806 0)
(0.984318079 0.1764027194 0)
(0.9919834604 0.1263677741 0)
(0.3709651905 -0.9286467721 0)
(0.4174835502 -0.9086844806 0)
(0.984318079 0.1764027194 0)
(0.4629933368 -0.8863617603 0)
(0.5072939337 -0.8617730936 0)
(0.9741174949 0.2260422663 0)
(0.4629933368 -0.8863617603 0)
(0.9741174949 0.2260422663 0)
(0.5072939337 -0.8617730936 0)
(0.9614177177 0.2750926608 0)
(0.9614177177 0.2750926608 0)
(0.5503307789 -0.8349467251 0)
(0.5503307789 -0.8349467251 0)
(0.9462480236 0.3234419235 0)
(0.9462480236 0.3234419235 0)
(0.5918776107 -0.8060278494 0)
(0.6319300934 -0.7750253913 0)
(0.5918776107 -0.8060278494 0)
(0.9286467721 0.3709651905 0)
(0.9286467721 0.3709651905 0)
(0.6703764599 -0.7420211601 0)
(0.6319300934 -0.7750253913 0)
(0.9086844806 0.4174835502 0)
(0.8863617603 0.4629933368 0)
(0.7071067812 -0.7071067812 0)
(0.9086844806 0.4174835502 0)
(0.6703764599 -0.7420211601 0)
(0.7420211601 -0.6703764599 0)
(0.8863617603 0.4629933368 0)
(0.7071067812 -0.7071067812 0)
(0.7750253913 -0.6319300934 0)
(0.8617730936 0.5072939337 0)
(0.7420211601 -0.6703764599 0)
(0.8349467251 0.5503307789 0)
(0.8617730936 0.5072939337 0)
(0.8060278494 -0.5918776107 0)
(0.7750253913 -0.6319300934 0)
(0.8349467251 0.5503307789 0)
(0.8349467251 -0.5503307789 0)
(0.8060278494 -0.5918776107 0)
(0.8060278494 0.5918776107 0)
(0.8060278494 0.5918776107 0)
(0.8349467251 -0.5503307789 0)
(0.8617730936 -0.5072939337 0)
(0.7750253913 0.6319300934 0)
(0.7750253913 0.6319300934 0)
(0.8617730936 -0.5072939337 0)
(0.8863617603 -0.4629933368 0)
(0.7420211601 0.6703764599 0)
(0.7420211601 0.6703764599 0)
(0.8863617603 -0.4629933368 0)
(0.7071067812 0.7071067812 0)
(0.9086844806 -0.4174835502 0)
(0.7071067812 0.7071067812 0)
(0.9086844806 -0.4174835502 0)
(0.9286467721 -0.3709651905 0)
(0.9286467721 -0.3709651905 0)
(0.6703764599 0.7420211601 0)
(0.6703764599 0.7420211601 0)
(0.6319300934 0.7750253913 0)
(0.9462480236 -0.3234419235 0)
(0.9462480236 -0.3234419235 0)
(0.9614177177 -0.2750926608 0)
(0.6319300934 0.7750253913 0)
(0.9614177177 -0.2750926608 0)
(0.9741174949 -0.2260422663 0)
(0.5918776107 0.8060278494 0)
(0.5918776107 0.8060278494 0)
(0.5503307789 0.8349467251 0)
(0.9741174949 -0.2260422663 0)
(0.984318079 -0.1764027194 0)
(0.5503307789 0.8349467251 0)
(0.984318079 -0.1764027194 0)
(0.9919834604 -0.1263677741 0)
(0.5072939337 0.8617730936 0)
(0.5072939337 0.8617730936 0)
(0.9919834604 -0.1263677741 0)
(0.9971124533 -0.07593915694 0)
(0.9971124533 -0.07593915694 0)
(0.4629933368 0.8863617603 0)
(0.999679551 -0.02531393671 0)
(0.4629933368 0.8863617603 0)
(0.999679551 -0.02531393671 0)
(0.4174835502 0.9086844806 0)
(0.4174835502 0.9086844806 0)
(0.3709651905 0.9286467721 0)
(0.3709651905 0.9286467721 0)
(0.3234419235 0.9462480236 0)
(0.3234419235 0.9462480236 0)
(0.2750926608 0.9614177177 0)
(0.2750926608 0.9614177177 0)
(0.2260422663 0.9741174949 0)
(0.1764027194 0.984318079 0)
(0.2260422663 0.9741174949 0)
(0.1764027194 0.984318079 0)
(0.1263677741 0.9919834604 0)
(0.1263677741 0.9919834604 0)
(0.07593915694 0.9971124533 0)
(0.07593915694 0.9971124533 0)
(0.02531393671 0.999679551 0)
(0.02531393671 0.999679551 0)
(-0.02531393671 0.999679551 0)
(-0.02531393671 0.999679551 0)
(-0.07593915694 0.9971124533 0)
(-0.07593915694 0.9971124533 0)
(-0.1263677741 0.9919834604 0)
(-0.1764027194 0.984318079 0)
(-0.1263677741 0.9919834604 0)
(-0.1764027194 0.984318079 0)
(-0.2260422663 0.9741174949 0)
(-0.2750926608 0.9614177177 0)
(-0.2260422663 0.9741174949 0)
(-0.2750926608 0.9614177177 0)
(-0.3234419235 0.9462480236 0)
(-0.3234419235 0.9462480236 0)
(-0.3709651905 0.9286467721 0)
(-0.3709651905 0.9286467721 0)
(-0.4174835502 0.9086844806 0)
(-0.4174835502 0.9086844806 0)
(-0.4629933368 0.8863617603 0)
(-0.4629933368 0.8863617603 0)
(-0.5072939337 0.8617730936 0)
(-0.5072939337 0.8617730936 0)
(-0.5503307789 0.8349467251 0)
(-0.5503307789 0.8349467251 0)
(-0.5918776107 0.8060278494 0)
(-0.5918776107 0.8060278494 0)
(-0.6319300934 0.7750253913 0)
(-0.6319300934 0.7750253913 0)
(-0.6703764599 0.7420211601 0)
(-0.6703764599 0.7420211601 0)
(-0.7071067812 0.7071067812 0)
(-0.7071067812 0.7071067812 0)
(-0.7420211601 0.6703764599 0)
(-0.7420211601 0.6703764599 0)
(-0.7750253913 0.6319300934 0)
(-0.7750253913 0.6319300934 0)
(-0.8060278494 0.5918776107 0)
(-0.8060278494 0.5918776107 0)
(-0.8349467251 0.5503307789 0)
(-0.8349467251 0.5503307789 0)
(-0.8617730936 0.5072939337 0)
(-0.8617730936 0.5072939337 0)
(-0.8863617603 0.4629933368 0)
(-0.8863617603 0.4629933368 0)
(-0.9086844806 0.4174835502 0)
(-0.9086844806 0.4174835502 0)
(-0.9286467721 0.3709651905 0)
(-0.9286467721 0.3709651905 0)
(-0.9462480236 0.3234419235 0)
(-0.9462480236 0.3234419235 0)
(-0.9614177177 0.2750926608 0)
(-0.9741174949 0.2260422663 0)
(-0.9614177177 0.2750926608 0)
(-0.9741174949 0.2260422663 0)
(-0.984318079 0.1764027194 0)
(-0.9919834604 0.1263677741 0)
(-0.984318079 0.1764027194 0)
(-0.9919834604 0.1263677741 0)
(-0.9971124533 0.07593915694 0)
(-0.999679551 0.02531393671 0)
(-0.9971124533 0.07593915694 0)
(-0.999679551 -0.02531393671 -0)
(-0.999679551 0.02531393671 0)
(-0.999679551 -0.02531393671 -0)
(-0.9971124533 -0.07593915694 0)
(-0.9971124533 -0.07593915694 -0)
(-0.9919834604 -0.1263677741 -0)
(-0.9919834604 -0.1263677741 -0)
(-0.984318079 -0.1764027194 -0)
(-0.984318079 -0.1764027194 -0)
(-0.9741174949 -0.2260422663 -0)
(-0.9741174949 -0.2260422663 -0)
(-0.9614177177 -0.2750926608 0)
(-0.9614177177 -0.2750926608 -0)
(-0.9462480236 -0.3234419235 -0)
(-0.9462480236 -0.3234419235 -0)
(-0.9286467721 -0.3709651905 0)
(-0.9286467721 -0.3709651905 -0)
(-0.9086844806 -0.4174835502 -0)
(-0.9086844806 -0.4174835502 -0)
(-0.8863617603 -0.4629933368 -0)
(-0.8863617603 -0.4629933368 -0)
(-0.8617730936 -0.5072939337 -0)
(-0.8617730936 -0.5072939337 -0)
(-0.8349467251 -0.5503307789 -0)
(-0.8349467251 -0.5503307789 -0)
(-0.8060278494 -0.5918776107 -0)
(-0.8060278494 -0.5918776107 -0)
(-0.7420211601 -0.6703764599 -0)
(-0.7750253913 -0.6319300934 0)
(-0.7750253913 -0.6319300934 -0)
(-0.7071067812 -0.7071067812 -0)
(-0.7420211601 -0.6703764599 -0)
(-0.6703764599 -0.7420211601 -0)
(-0.7071067812 -0.7071067812 -0)
(-0.6703764599 -0.7420211601 -0)
(-0.6319300934 -0.7750253913 -0)
(-0.6319300934 -0.7750253913 0)
(-0.5918776107 -0.8060278494 -0)
(-0.5918776107 -0.8060278494 0)
(-0.5503307789 -0.8349467251 -0)
(-0.5072939337 -0.8617730936 -0)
(-0.5503307789 -0.8349467251 0)
(-0.4629933368 -0.8863617603 -0)
(-0.5072939337 -0.8617730936 -0)
(-0.4174835502 -0.9086844806 -0)
(-0.4629933368 -0.8863617603 -0)
(-0.3709651905 -0.9286467721 -0)
(-0.4174835502 -0.9086844806 -0)
(-0.3234419235 -0.9462480236 -0)
(-0.3709651905 -0.9286467721 -0)
(-0.2750926608 -0.9614177177 -0)
(-0.3234419235 -0.9462480236 -0)
(-0.2750926608 -0.9614177177 -0)
(-0.2260422663 -0.9741174949 -0)
(-0.2260422663 -0.9741174949 -0)
(-0.1764027194 -0.984318079 -0)
(-0.1764027194 -0.984318079 -0)
(-0.1263677741 -0.9919834604 0)
(-0.1263677741 -0.9919834604 -0)
(-0.07593915694 -0.9971124533 -0)
(-0.07593915694 -0.9971124533 -0)
(-0.02531393671 -0.999679551 -0)
(-0.02531393671 -0.999679551 0)
(0.02531393671 -0.999679551 0)
(0.07593915694 -0.9971124533 0)
(0.02531393671 -0.999679551 0)
(0.1263677741 -0.9919834604 0)
(0.07593915694 -0.9971124533 0)
(0 0 -1)
(0 0 -1)
(0 0 -1)
(-0 0 -1)
(0 0 -1)
(0 0 -1)
(-0 0 -1)
(0 0 -1)
(0 0 -1)
(-0 0 -1)
(-0 0 -1)
(-0 0 -1)
(-0 0 -1)
(0 0 -1)
(0 0 -1)
(0 0 -1)
(0 0 -1)
(0 0 -1)
(0 0 -1)
(0 0 -1)
(0 0 -1)
(0 0 -1)
(0 0 -1)
(0 0 -1)
(0 0 -1)
(0 0 -1)
(0 0 -1)
(0 0 -1)
(0 0 -1)
(0 0 -1)
(0 0 -1)
(0 0 -1)
(0 0 -1)
(0 0 -1)
(0 0 -1)
(0 0 -1)
(0 0 -1)
(0 0 -1)
(0 0 -1)
(0 0 -1)
(0 0 -1)
(-0 0 -1)
(-0 0 -1)
(-0 0 -1)
(0 0 -1)
(0 0 -1)
(0 0 -1)
(0 0 -1)
(-0 0 -1)
(0 0 -1)
(0 0 -1)
(0 0 -1)
(0 0 -1)
(0 0 -1)
(-0 0 -1)
(0 0 -1)
(0 0 -1)
(-0 0 -1)
(0 0 -1)
(0 0 -1)
(0 0 -1)
(-0 0 -1)
(0 0 1)
(0 0 1)
(0 0 1)
(0 0 1)
(0 0 1)
(0 0 1)
(0 0 1)
(0 0 1)
(0 0 1)
(0 0 1)
(0 0 1)
(0 0 1)
(0 0 1)
(0 0 1)
(0 0 1)
(0 0 1)
(0 0 1)
(0 0 1)
(0 0 1)
(0 0 1)
(0 0 1)
(0 0 1)
(0 0 1)
(0 0 1)
(0 0 1)
(0 0 1)
(0 0 1)
(0 0 1)
(0 0 1)
(0 0 1)
(0 0 1)
(0 0 1)
(0 0 1)
(0 0 1)
(0 0 1)
(0 0 1)
(0 0 1)
(0 0 1)
(0 0 1)
(0 0 1)
(0 0 1)
(0 0 1)
(0 0 1)
(0 0 1)
(0 0 1)
(0 0 1)
(0 0 1)
(0 0 1)
(0 0 1)
(0 0 1)
(0 0 1)
(0 0 1)
(0 0 1)
(0 0 1)
(0 0 1)
(0 0 1)
(0 0 1)
(0 0 1)
(0 0 1)
(0 0 1)
(0 0 1)
(0 0 1)
)

// normal volume types

420
(
0
0
0
0
0
0
0
0
0
0
0
0
0
0
0
0
0
0
0
0
0
0
0
0
0
0
0
0
0
0
0
0
0
0
0
0
0
0
0
0
0
0
0
0
0
0
0
0
0
0
0
0
0
0
0
0
0
0
0
0
0
0
0
0
0
0
0
0
0
0
0
0
0
0
0
0
0
0
0
0
0
0
0
0
0
0
0
0
0
0
0
0
0
0
0
0
0
0
0
0
0
0
0
0
0
0
0
0
0
0
0
0
0
0
0
0
0
0
0
0
0
0
0
0
0
0
0
0
0
0
0
0
0
0
0
0
0
0
0
0
0
0
0
0
0
0
0
0
0
0
0
0
0
0
0
0
0
0
0
0
0
0
0
0
0
0
0
0
0
0
0
0
0
0
0
0
0
0
0
0
0
0
0
0
0
0
0
0
0
0
0
0
0
0
0
0
0
0
0
0
0
0
0
0
0
0
0
0
0
0
0
0
0
0
0
0
0
0
0
0
0
0
0
0
0
0
0
0
0
0
0
0
0
0
0
0
0
0
0
0
0
0
0
0
0
0
0
0
0
0
0
0
0
0
0
0
0
0
0
0
0
0
0
0
0
0
0
0
0
0
0
0
0
0
0
0
0
0
0
0
0
0
0
0
0
0
0
0
0
0
0
0
0
0
0
0
0
0
0
0
0
0
0
0
0
0
0
0
0
0
0
0
0
0
0
0
0
0
0
0
0
0
0
0
0
0
0
0
0
0
0
0
0
0
0
0
0
0
0
0
0
0
0
0
0
0
0
0
0
0
0
0
0
0
0
0
0
0
0
0
0
0
0
0
0
0
0
0
0
0
0
0
0
0
0
0
0
0
0
0
0
0
0
0
0
0
0
0
0
0
0
0
0
0
0
0
0
0
0
0
0
0
0
0
0
0
0
0
0
0
0
0
0
0
0
0
0
0
0
0
)

// normalDirections

408
(
2(1 -1)
2(1 -1)
2(1 -1)
2(1 -1)
2(1 -1)
2(1 -1)
2(1 -1)
2(1 -1)
2(1 -1)
2(1 -1)
2(1 -1)
2(1 -1)
2(1 -1)
2(1 -1)
2(1 -1)
2(1 -1)
2(1 -1)
2(1 -1)
2(1 -1)
2(1 -1)
2(1 -1)
2(1 -1)
2(1 -1)
2(1 -1)
2(1 -1)
2(1 -1)
2(1 -1)
2(1 -1)
2(1 -1)
2(1 -1)
2(1 -1)
2(1 -1)
2(1 -1)
2(1 -1)
2(1 -1)
2(1 -1)
1(1)
1(1)
1(1)
1(1)
1(1)
1(1)
1(1)
1(1)
1(1)
1(1)
1(1)
1(1)
1(1)
1(1)
1(1)
1(1)
1(1)
1(1)
1(1)
1(1)
1(1)
1(1)
1(1)
1(1)
1(1)
1(1)
1(1)
1(1)
1(1)
1(1)
1(1)
1(1)
1(1)
1(1)
1(1)
1(1)
1(1)
1(1)
1(1)
1(1)
1(1)
1(1)
1(1)
1(1)
1(1)
1(1)
1(1)
1(1)
1(1)
1(1)
1(1)
1(1)
1(1)
1(1)
1(1)
1(1)
1(1)
1(1)
1(1)
1(1)
1(1)
1(1)
1(1)
1(1)
1(1)
1(1)
1(1)
1(1)
1(1)
1(1)
1(1)
1(1)
1(1)
1(1)
1(1)
1(1)
1(1)
1(1)
1(1)
1(1)
1(1)
1(1)
1(1)
1(1)
1(1)
1(1)
1(1)
1(1)
1(1)
1(1)
1(1)
1(1)
1(1)
1(1)
1(1)
1(1)
1(1)
1(1)
1(1)
1(1)
1(1)
1(1)
1(1)
1(1)
1(1)
1(1)
1(1)
1(1)
1(1)
1(1)
1(1)
1(1)
1(1)
1(1)
1(1)
1(1)
1(1)
1(1)
1(1)
1(1)
1(1)
1(1)
1(1)
1(1)
1(1)
1(1)
1(1)
1(1)
1(1)
1(1)
1(1)
1(1)
1(1)
1(1)
1(1)
1(1)
1(1)
1(1)
1(1)
1(1)
1(1)
1(1)
1(1)
1(1)
1(1)
1(1)
1(1)
1(1)
1(1)
1(1)
1(1)
1(1)
1(1)
1(1)
1(1)
1(1)
1(1)
1(1)
1(1)
1(1)
1(1)
1(1)
1(1)
1(1)
1(1)
1(1)
1(1)
1(1)
1(1)
1(1)
1(1)
1(1)
1(1)
1(1)
1(1)
1(1)
1(1)
1(1)
1(1)
1(1)
1(1)
1(1)
1(1)
1(1)
1(1)
1(1)
1(1)
1(1)
1(1)
1(1)
1(1)
1(1)
1(1)
1(1)
1(1)
1(1)
1(1)
1(1)
1(1)
1(1)
1(1)
1(1)
1(1)
1(1)
1(1)
1(1)
1(1)
1(1)
1(1)
1(1)
1(1)
1(1)
1(1)
1(1)
1(1)
1(1)
1(1)
1(1)
1(1)
1(1)
1(1)
1(1)
1(1)
1(1)
1(1)
1(1)
1(1)
1(1)
1(1)
1(1)
1(1)
1(1)
1(1)
1(1)
1(1)
1(1)
1(1)
1(1)
1(1)
1(1)
1(1)
1(1)
1(1)
1(1)
1(1)
1(1)
1(1)
1(1)
1(1)
1(1)
1(1)
1(1)
1(1)
1(1)
1(1)
1(1)
1(1)
1(1)
1(1)
1(1)
1(1)
1(1)
1(1)
1(1)
1(1)
1(1)
1(1)
1(1)
1(1)
1(1)
1(1)
1(1)
1(1)
1(1)
1(1)
1(1)
1(1)
1(1)
1(1)
1(1)
1(1)
1(1)
1(1)
1(1)
1(1)
1(1)
1(1)
1(1)
1(1)
1(1)
1(1)
1(1)
1(1)
1(1)
1(1)
1(1)
1(1)
1(1)
1(1)
1(1)
1(1)
1(1)
1(1)
1(1)
1(1)
1(1)
1(1)
1(1)
1(1)
1(1)
1(1)
1(1)
1(1)
1(1)
1(1)
1(1)
1(1)
1(1)
1(1)
1(1)
1(1)
1(1)
1(1)
1(1)
1(1)
1(1)
1(1)
1(1)
1(1)
1(1)
1(1)
1(1)
1(1)
1(1)
1(1)
1(1)
1(1)
1(1)
1(1)
1(1)
1(1)
1(1)
1(1)
1(1)
1(1)
1(1)
1(1)
1(1)
1(1)
1(1)
1(1)
1(1)
1(1)
1(1)
1(1)
1(1)
1(1)
1(1)
1(1)
1(1)
1(1)
1(1)
1(1)
1(1)
1(1)
1(1)
1(1)
1(1)
1(1)
1(1)
1(1)
1(1)
)

// edgeNormals

408
(
2(0 1)
2(2 3)
2(4 5)
2(6 7)
2(8 9)
2(10 11)
2(12 13)
2(14 15)
2(16 17)
2(18 19)
2(20 21)
2(22 23)
2(24 25)
2(26 27)
2(28 29)
2(30 31)
2(32 33)
2(34 35)
2(36 37)
2(38 39)
2(40 41)
2(42 43)
2(44 45)
2(46 47)
2(9 35)
2(25 23)
2(27 29)
2(31 13)
2(33 19)
2(11 39)
2(43 1)
2(15 3)
2(47 21)
2(5 41)
2(45 7)
2(17 37)
1(48)
1(49)
1(50)
1(51)
1(52)
1(53)
1(54)
1(55)
1(56)
1(57)
1(58)
1(59)
1(60)
1(61)
1(62)
1(63)
1(64)
1(65)
1(66)
1(67)
1(68)
1(69)
1(70)
1(71)
1(72)
1(73)
1(74)
1(75)
1(76)
1(77)
1(78)
1(79)
1(80)
1(81)
1(82)
1(83)
1(84)
1(85)
1(86)
1(87)
1(88)
1(89)
1(90)
1(91)
1(92)
1(93)
1(94)
1(95)
1(96)
1(97)
1(98)
1(99)
1(100)
1(101)
1(102)
1(103)
1(104)
1(105)
1(106)
1(107)
1(108)
1(109)
1(110)
1(111)
1(112)
1(113)
1(114)
1(115)
1(116)
1(117)
1(118)
1(119)
1(120)
1(121)
1(122)
1(123)
1(124)
1(125)
1(126)
1(127)
1(128)
1(129)
1(130)
1(131)
1(132)
1(133)
1(134)
1(135)
1(136)
1(137)
1(138)
1(139)
1(140)
1(141)
1(142)
1(143)
1(144)
1(145)
1(146)
1(147)
1(148)
1(149)
1(150)
1(151)
1(152)
1(153)
1(154)
1(155)
1(156)
1(157)
1(158)
1(159)
1(160)
1(161)
1(162)
1(163)
1(164)
1(165)
1(166)
1(167)
1(168)
1(169)
1(170)
1(171)
1(172)
1(173)
1(174)
1(175)
1(176)
1(177)
1(178)
1(179)
1(180)
1(181)
1(182)
1(183)
1(184)
1(185)
1(186)
1(187)
1(188)
1(189)
1(190)
1(191)
1(192)
1(193)
1(194)
1(195)
1(196)
1(197)
1(198)
1(199)
1(200)
1(201)
1(202)
1(203)
1(204)
1(205)
1(206)
1(207)
1(208)
1(209)
1(210)
1(211)
1(212)
1(213)
1(214)
1(215)
1(216)
1(217)
1(218)
1(219)
1(220)
1(221)
1(222)
1(223)
1(224)
1(225)
1(226)
1(227)
1(228)
1(229)
1(230)
1(231)
1(232)
1(233)
1(234)
1(235)
1(236)
1(237)
1(238)
1(239)
1(240)
1(241)
1(242)
1(243)
1(244)
1(245)
1(246)
1(247)
1(248)
1(249)
1(250)
1(251)
1(252)
1(253)
1(254)
1(255)
1(256)
1(257)
1(258)
1(259)
1(260)
1(261)
1(262)
1(263)
1(264)
1(265)
1(266)
1(267)
1(268)
1(269)
1(270)
1(271)
1(272)
1(273)
1(274)
1(275)
1(276)
1(277)
1(278)
1(279)
1(280)
1(281)
1(282)
1(283)
1(284)
1(285)
1(286)
1(287)
1(288)
1(289)
1(290)
1(291)
1(292)
1(293)
1(294)
1(295)
1(296)
1(297)
1(298)
1(299)
1(300)
1(301)
1(302)
1(303)
1(304)
1(305)
1(306)
1(307)
1(308)
1(309)
1(310)
1(311)
1(312)
1(313)
1(314)
1(315)
1(316)
1(317)
1(318)
1(319)
1(320)
1(321)
1(322)
1(323)
1(324)
1(325)
1(326)
1(327)
1(328)
1(329)
1(330)
1(331)
1(332)
1(333)
1(334)
1(335)
1(336)
1(337)
1(338)
1(339)
1(340)
1(341)
1(342)
1(343)
1(344)
1(345)
1(346)
1(347)
1(348)
1(349)
1(350)
1(351)
1(352)
1(353)
1(354)
1(355)
1(356)
1(357)
1(358)
1(359)
1(360)
1(361)
1(362)
1(363)
1(364)
1(365)
1(366)
1(367)
1(368)
1(369)
1(370)
1(371)
1(372)
1(373)
1(374)
1(375)
1(376)
1(377)
1(378)
1(379)
1(380)
1(381)
1(382)
1(383)
1(384)
1(385)
1(386)
1(387)
1(388)
1(389)
1(390)
1(391)
1(392)
1(393)
1(394)
1(395)
1(396)
1(397)
1(398)
1(399)
1(400)
1(401)
1(402)
1(403)
1(404)
1(405)
1(406)
1(407)
1(408)
1(409)
1(410)
1(411)
1(412)
1(413)
1(414)
1(415)
1(416)
1(417)
1(418)
1(419)
)

// featurePointNormals

148
(
3(0 1 23)
3(2 3 5)
3(6 7 13)
3(8 9 11)
3(24 25 47)
3(26 27 29)
3(30 31 37)
3(32 33 35)
3(49 51 399)
3(48 294 337)
3(50 52 338)
3(53 57 400)
3(54 146 327)
3(55 148 389)
3(56 59 345)
3(60 65 396)
3(58 62 334)
3(61 66 407)